20

N  -0.711854  1.268267  0.001222
C  -0.627718  2.596278  0.001311
C  -1.732203  3.440192  0.000217
C  -2.990095  2.855598  -0.001044
C  -3.091184  1.471275  -0.001140
C  -1.925771  0.699844  0.000036
C  -1.967019  -0.798142  0.000015
C  -3.173247  -1.504024  0.000326
C  -3.148679  -2.891835  0.000282
C  -1.924820  -3.544885  -0.000066
C  -0.775615  -2.763182  -0.000317
N  -0.786275  -1.432558  -0.000288
H  0.377995  3.012267  0.002263
H  -1.603334  4.516979  0.000323
H  -3.887687  3.466156  -0.001991
H  -4.071395  1.012118  -0.002307
H  -4.126540  -0.991345  0.000777
H  -4.078527  -3.452053  0.000552
H  -1.855708  -4.627139  -0.000110
H  0.205586  -3.234071  -0.000581
