32

N  -0.832907  1.460108  0.313483
C  -0.761501  2.818387  0.291377
C  -1.877893  3.635592  -0.027022
C  -3.093870  2.980402  -0.331266
C  -3.150694  1.615751  -0.299976
C  -1.980791  0.881137  0.033032
C  -2.016477  -0.613473  0.065866
C  -3.208568  -1.290784  0.439160
C  -3.216902  -2.656620  0.469590
C  -2.045221  -3.369723  0.124545
C  -0.902060  -2.607331  -0.232510
N  -0.908301  -1.247196  -0.253343
H  -3.968270  3.569764  -0.592375
H  -4.069051  1.096739  -0.548017
H  -4.091695  -0.728110  0.718016
H  -4.109398  -3.203125  0.760942
C  -1.966870  -4.784501  0.124065
C  0.293890  -3.284239  -0.584601
C  -0.798670  -5.411929  -0.219473
H  -2.847805  -5.357366  0.399718
C  0.341870  -4.652977  -0.576883
H  1.158024  -2.686036  -0.855593
C  0.477195  3.436258  0.601733
C  -1.731121  5.044895  -0.030296
C  -0.522809  5.614678  0.272577
C  0.591151  4.801074  0.591308
H  1.320102  2.796665  0.843423
H  1.541822  5.268640  0.828893
H  -0.412799  6.694616  0.269978
H  -2.592154  5.660045  -0.276082
H  -0.741056  -6.495922  -0.219674
H  1.260082  -5.165865  -0.846444
