50

N  -1.068885  1.412818  0.139356
C  -1.028412  2.737822  -0.024769
C  -2.150904  3.464008  -0.435051
C  -3.335163  2.788063  -0.677079
C  -3.375572  1.410102  -0.503795
C  -2.215913  0.757729  -0.090720
C  -2.197150  -0.721553  0.110386
C  -3.332082  -1.398720  0.551063
C  -3.258209  -2.775569  0.721846
C  -2.065767  -3.425828  0.451179
C  -0.968853  -2.675313  0.016130
N  -1.042281  -1.351767  -0.148032
C  0.292532  3.423992  0.263257
H  -2.089543  4.539389  -0.564371
H  -4.219954  3.325151  -1.005284
H  -4.283631  0.853990  -0.706360
H  -4.246247  -0.861581  0.775905
H  -4.123219  -3.331394  1.070830
H  -1.978770  -4.499817  0.577377
C  0.368609  -3.327824  -0.274471
H  1.021212  -2.524321  -0.637142
C  0.262799  -4.392241  -1.378464
C  0.980473  -3.883419  1.026143
H  0.983055  2.628135  0.567891
C  0.146092  4.403455  1.443285
C  0.867250  4.097934  -0.993972
H  0.925421  -3.101592  1.793317
C  2.430886  -4.339998  0.893735
H  0.363726  -4.715251  1.389802
H  -0.375161  3.886623  2.258172
H  -0.501129  5.237879  1.144506
C  1.469677  4.947340  1.974337
H  3.063221  -3.534882  0.501929
H  2.535455  -5.201395  0.227165
H  2.832581  -4.631833  1.869890
H  2.145762  4.131973  2.256581
H  1.303124  5.563243  2.864456
H  1.987014  5.570503  1.238648
C  1.119122  3.131666  -2.147883
H  1.810561  4.586927  -0.729033
H  0.187472  4.896167  -1.319156
C  -0.254090  -3.848970  -2.707483
H  -0.383755  -5.209725  -1.034166
H  1.253325  -4.831352  -1.536619
H  1.802361  2.328815  -1.847970
H  1.569253  3.650309  -3.000897
H  0.192516  2.663916  -2.496774
H  -1.272442  -3.456344  -2.617856
H  -0.268278  -4.633241  -3.471647
H  0.383013  -3.036740  -3.075951
