65

C     0.995245    4.108244   -1.098447    
C     0.032527    3.624106   -0.000785    
C     0.536715    4.108631    1.369493    
C    -1.346192    4.240262   -0.257070    
C    -0.008082    2.094644   -0.006536    
C    -1.174647    1.364702   -0.212177    
C    -1.137162   -0.032108   -0.195293    
C    -2.383712   -0.828978   -0.409133    
C    -3.618753   -0.348836    0.033937    
C    -4.778831   -1.093302   -0.167938    
C    -6.161139   -0.631563    0.296293    
C    -6.732548   -1.665293    1.281629    
C    -6.114194    0.731568    0.993139    
C    -7.090356   -0.524878   -0.924907    
C    -4.621973   -2.316894   -0.824687    
C    -3.357926   -2.720645   -1.225040    
N    -2.249327   -2.005939   -1.028777    
N    -0.011590   -0.719835   -0.002291    
C     1.120489   -0.034038    0.189189    
C     2.362756   -0.836499    0.405083    
C     3.600429   -0.363395   -0.038323    
C     4.756965   -1.112047    0.167863    
C     6.142061   -0.657625   -0.295299    
C     6.712252   -1.697918   -1.274406    
C     6.101832    0.702444   -0.998538    
C     7.068617   -0.548695    0.927747    
C     4.593873   -2.332935    0.828275    
C     3.327576   -2.729985    1.227943    
N     2.222348   -2.010915    1.028074    
C     1.159574    1.357573    0.201738    
H     0.662705    3.777564   -2.088315    
H     2.012629    3.737305   -0.941461    
H     1.035886    5.202869   -1.103211    
H     0.571403    5.203322    1.388230    
H    -0.128487    3.777186    2.174097    
H     1.543131    3.739335    1.588306    
H    -1.747382    3.951366   -1.234032    
H    -2.071666    3.951868    0.510689    
H    -1.264611    5.331714   -0.242348    
H    -2.114156    1.866168   -0.401975    
H    -6.090473   -1.766502    2.163232    
H    -7.725437   -1.349848    1.620214    
H    -6.834645   -2.652698    0.821478    
H    -5.736590    1.516692    0.329765    
H    -7.124888    1.016783    1.301992    
H    -5.487320    0.710207    1.890610    
H    -7.198655   -1.484611   -1.439060    
H    -8.087654   -0.200672   -0.608331    
H    -6.710216    0.205733   -1.647081    
H    -5.471101   -2.961319   -1.024685    
H     6.071831   -1.801255   -2.156965    
H     7.706907   -1.387301   -1.612263    
H     6.810208   -2.683441   -0.809359    
H     5.726103    1.492131   -0.339531    
H     7.114226    0.982253   -1.306755    
H     5.476546    0.679397   -1.897073    
H     7.172033   -1.506448    1.446586    
H     8.067909   -0.229619    0.612239    
H     6.689347    0.186613    1.645599    
H     5.439911   -2.980426    1.031378    
H     2.099201    1.863769    0.388851    
H    -3.229892   -3.673005   -1.735584    
H     3.194590   -3.680335    1.740969    
H    -3.657875    0.599684    0.553123    
H     3.644078    0.583103   -0.560864    
