43

C  -7.383690  0.383603  -0.083841
O  -6.504608  -0.617283  0.407908
C  -5.173497  -0.423670  0.263664
C  -4.347300  -1.428606  0.778437
C  -2.973081  -1.320474  0.678380
C  -2.374572  -0.208727  0.067724
C  -0.901805  -0.093704  -0.032834
C  -0.090555  -1.220390  -0.174321
C  1.292657  -1.070353  -0.254732
C  2.179559  -2.263134  -0.401180
C  1.842845  -3.483903  0.186122
C  2.697084  -4.566519  0.026266
C  3.859731  -4.399204  -0.713019
C  4.114181  -3.145054  -1.256167
N  3.304177  -2.097793  -1.109528
N  1.891853  0.123139  -0.220767
C  1.126028  1.210488  -0.094613
C  1.829184  2.527620  -0.051877
C  1.244455  3.669881  -0.601214
C  1.932841  4.873993  -0.541245
C  3.181505  4.902424  0.063981
C  3.685448  3.713752  0.579422
N  3.036538  2.551498  0.527459
C  -0.261845  1.145726  0.011498
C  -3.213352  0.784463  -0.440311
C  -4.597978  0.688482  -0.351383
H  -7.212723  1.345179  0.412471
H  -7.281259  0.509817  -1.167324
H  -8.392149  0.035946  0.143452
H  -4.805731  -2.285110  1.261896
H  -2.353050  -2.104165  1.102257
H  -0.534421  -2.205381  -0.255469
H  2.459342  -5.523593  0.480104
H  4.558272  -5.214869  -0.865215
H  5.015538  -2.974955  -1.841256
H  1.500892  5.773706  -0.968292
H  3.757567  5.818689  0.134419
H  4.660795  3.696491  1.061094
H  -0.835620  2.052429  0.162595
H  -2.785748  1.648543  -0.939359
H  -5.212497  1.477046  -0.767955
H  0.276252  3.613470  -1.085686
H  0.937738  -3.579897  0.775047
