42

C  -6.624027  -0.626336  0.002080
C  -5.124325  -0.504904  -0.002906
C  -4.317334  -1.485007  -0.579704
C  -2.932203  -1.369183  -0.579253
C  -2.307008  -0.261397  -0.002087
C  -0.830136  -0.133065  -0.001229
C  -0.003348  -1.251187  0.108429
C  1.380888  -1.088208  0.096859
C  2.288372  -2.269193  0.210895
C  1.930369  -3.504466  -0.331753
C  2.805021  -4.575014  -0.203990
C  4.008443  -4.381574  0.459731
C  4.281242  -3.114595  0.962750
N  3.452085  -2.078617  0.846162
N  1.963706  0.109649  0.000224
C  1.183163  1.189051  -0.097139
C  1.873516  2.508871  -0.210077
C  1.307564  3.663650  0.332773
C  1.984657  4.869026  0.206070
C  3.203840  4.886274  -0.456833
C  3.691289  3.685547  -0.960173
N  3.053071  2.522078  -0.844604
C  -0.208434  1.110906  -0.110013
C  -3.115044  0.724902  0.575761
C  -4.496363  0.601754  0.575616
H  -4.779497  -2.352443  -1.042918
H  -2.334602  -2.141521  -1.053588
H  -0.433989  -2.237256  0.236021
H  2.550727  -5.543074  -0.624234
H  4.724148  -5.186966  0.584183
H  5.214474  -2.924161  1.488551
H  1.566990  5.778535  0.626495
H  3.770072  5.803050  -0.580438
H  4.643733  3.659135  -1.485344
H  -0.802353  2.008132  -0.237742
H  -2.657951  1.587890  1.050060
H  -5.100989  1.377153  1.038966
H  -6.950710  -1.546622  -0.489363
H  -7.091341  0.218465  -0.516022
H  -7.016612  -0.631315  1.024994
H  0.363186  3.616842  0.863062
H  0.992418  -3.621348  -0.862634
