22

N  0.642147  -3.794114  -0.358074
C  0.231628  -2.570593  0.114519
N  -0.916756  -2.300794  0.612568
N  0.882719  -0.259837  -0.011458
C  1.293085  -1.503409  0.097207
C  2.662325  -1.860178  0.207981
C  3.607486  -0.872723  0.202813
C  3.204402  0.476724  0.081493
C  4.116109  1.561748  0.063079
C  3.657964  2.846736  -0.056725
C  2.269516  3.104402  -0.162682
C  1.366409  2.075160  -0.146960
C  1.811719  0.733957  -0.023078
H  -0.087062  -4.482826  -0.504472
H  2.945354  -2.900501  0.315875
H  4.663484  -1.109844  0.295529
H  5.179095  1.353375  0.144935
H  4.357966  3.676289  -0.071149
H  1.923581  4.129174  -0.257218
H  0.298738  2.252959  -0.226894
H  1.362756  -3.809745  -1.069180
H  -1.527965  -3.119500  0.538571
