26

N  -0.680560  1.251392  0.425607
C  -0.641266  2.580144  0.533135
C  -1.724282  3.409510  0.283641
C  -2.935642  2.841169  -0.109496
C  -2.978053  1.454481  -0.221278
C  -1.840282  0.694505  0.056429
C  -1.868860  -0.794697  -0.055632
C  -3.035317  -1.510300  0.221494
C  -3.046294  -2.897492  0.109666
C  -1.857457  -3.512097  -0.282989
C  -0.743190  -2.725145  -0.531785
N  -0.731343  -1.395760  -0.424203
H  0.311398  3.007621  0.839305
H  -1.622684  4.485215  0.390471
C  -4.136386  3.693222  -0.405239
H  -3.931204  -0.990309  0.543593
C  -4.278849  -3.702901  0.405182
H  -1.797501  -4.590913  -0.389929
H  0.192476  -3.188867  -0.837600
H  -5.115222  -3.062063  0.695019
H  -4.093612  -4.414364  1.216967
H  -4.580518  -4.286126  -0.471395
H  -4.995113  3.085222  -0.700394
H  -3.922258  4.400962  -1.213134
H  -4.418998  4.283303  0.473125
H  -3.893202  0.969518  -0.543880
