28

N  -1.355324  1.931383  -0.022862
C  -2.672219  1.935469  -0.045160
C  -3.460598  0.775811  -0.058402
C  -2.854057  -0.460122  -0.048012
C  -1.433518  -0.491362  -0.023953
C  -0.697178  -1.720692  -0.011361
C  0.656106  -1.732997  0.011511
C  1.419200  -0.516706  0.024270
C  2.840331  -0.492791  0.048233
C  3.454204  0.742948  0.058587
C  2.680377  1.907190  0.045510
N  1.362055  1.912746  0.023214
C  0.728619  0.721198  0.012536
C  -0.730198  0.732205  -0.012161
H  -3.155124  2.911222  -0.053442
H  -4.542375  0.860970  -0.076735
H  -1.240683  -2.658717  -0.020434
H  1.171519  -2.685258  0.020363
H  4.537236  0.817785  0.076853
H  3.170547  2.879261  0.053781
C  -3.665645  -1.723234  -0.061642
C  3.699798  -1.728371  0.062737
H  -4.733704  -1.494367  -0.079745
H  -3.463046  -2.336152  0.823144
H  -3.433211  -2.336303  -0.938956
H  3.135168  -2.659298  0.052503
H  4.335527  -1.732818  0.954205
H  4.366226  -1.732101  -0.806020
