48

N  -1.329671  1.778542  0.064934
C  -2.650187  1.813482  0.097720
C  -3.430916  0.644236  0.053498
C  -2.830416  -0.594584  -0.018380
C  -3.683017  -1.810976  -0.096431
C  -3.542882  -2.730607  -1.141038
C  -4.380846  -3.836584  -1.225707
C  -5.368502  -4.042258  -0.267200
C  -5.518232  -3.131443  0.773636
C  -4.684601  -2.021793  0.855852
C  -1.408725  -0.645860  -0.014789
C  -0.666947  -1.872260  -0.009185
C  0.687037  -1.877576  0.010850
C  1.438377  -0.656958  0.016581
C  2.863107  -0.618065  0.019605
C  3.703920  -1.842963  0.095738
C  3.557609  -2.760749  1.141086
C  4.385161  -3.874671  1.224113
C  5.368408  -4.090160  0.263211
C  5.524120  -3.181331  -0.778450
C  4.700774  -2.063873  -0.859118
C  3.472559  0.613431  -0.051314
C  2.700383  1.791846  -0.094557
N  1.381982  1.768969  -0.061879
C  0.749987  0.574670  -0.010217
C  -0.708799  0.582084  0.012986
C  -3.295673  3.169201  0.170988
H  -4.512697  0.725237  0.052263
H  -2.784564  -2.570342  -1.901181
H  -4.263574  -4.537294  -2.046852
H  -6.020524  -4.908003  -0.332794
H  -6.286167  -3.283886  1.526016
H  -4.802080  -1.315270  1.672012
H  -1.204874  -2.812336  -0.009740
H  1.217590  -2.821826  0.011691
H  2.802635  -2.593055  1.902977
H  4.263249  -4.573938  2.045814
H  6.012271  -4.962087  0.327525
H  6.288640  -3.341421  -1.532720
H  4.822752  -1.358847  -1.675910
H  4.555406  0.687236  -0.050402
C  3.378743  3.130357  -0.165717
H  2.634944  3.929070  -0.190766
H  4.006476  3.203641  -1.060599
H  4.032509  3.284158  0.699871
H  -4.385626  3.096886  0.184869
H  -2.998169  3.780735  -0.687140
H  -2.970860  3.697568  1.073398
