44

N  -0.589004  1.239830  0.531683
C  -0.570154  2.559206  0.725358
C  -1.657992  3.390328  0.509264
C  -2.862519  2.845612  0.055640
C  -2.878883  1.466954  -0.143749
C  -1.736617  0.701861  0.105903
C  -1.751259  -0.777311  -0.105412
C  -2.908035  -1.519838  0.145563
C  -2.918963  -2.898547  -0.053844
C  -1.725888  -3.466798  -0.508839
C  -0.622177  -2.657197  -0.726146
N  -0.614920  -1.337702  -0.532505
H  0.370300  2.978500  1.077177
H  -1.555279  4.454463  0.692300
C  -4.073181  3.743471  -0.204930
H  -3.769190  0.974970  -0.512791
H  -3.788095  -1.010477  0.515610
C  -4.146705  -3.772477  0.208131
H  -1.644298  -4.532740  -0.692000
H  0.309447  -3.094853  -1.079085
C  -5.346005  -2.955871  0.698936
C  -3.799063  -4.821787  1.277824
C  -4.542500  -4.486620  -1.095557
C  -5.288865  2.950540  -0.694237
C  -3.706297  4.785716  -1.275106
C  -4.453311  4.465300  1.099189
H  -5.133479  -2.445153  1.643884
H  -6.196065  -3.624490  0.867892
H  -5.656046  -2.204445  -0.034693
H  -3.511526  -4.343360  2.220281
H  -2.975448  -5.468880  0.961436
H  -4.668623  -5.458694  1.473142
H  -5.087450  2.435517  -1.639282
H  -6.125773  3.635737  -0.862443
H  -5.612847  2.205534  0.039915
H  -4.719455  3.748595  1.883598
H  -5.317753  5.115779  0.927445
H  -3.635574  5.088676  1.473130
H  -3.429350  4.301701  -2.217880
H  -2.869752  5.416519  -0.959752
H  -4.563415  5.439574  -1.469417
H  -4.795412  -3.764779  -1.879636
H  -5.419374  -5.119966  -0.922807
H  -3.737634  -5.125956  -1.470478
