24

N  -0.728044  1.247020  0.440319
C  -0.698027  2.578979  0.529232
C  -1.757440  3.414655  0.226535
C  -2.958778  2.842152  -0.215304
C  -3.001061  1.443233  -0.310894
C  -1.880079  0.695227  0.027148
C  -1.914162  -0.797988  -0.062906
C  -3.087538  -1.490403  0.210223
C  -3.107765  -2.889595  0.114429
C  -1.910929  -3.520868  -0.252630
C  -0.796758  -2.738106  -0.493855
N  -0.768210  -1.405867  -0.408344
H  0.239483  3.012501  0.873132
H  -1.659639  4.491376  0.323394
N  -4.026069  3.613372  -0.591409
H  -3.903906  0.959164  -0.668031
H  -3.984852  -0.962546  0.515592
N  -4.258051  -3.601904  0.330073
H  -1.859033  -4.601534  -0.340425
H  0.138708  -3.217655  -0.776797
H  -4.988582  -3.144154  0.860406
H  -4.153867  -4.585476  0.544941
H  -4.932967  3.165006  -0.617758
H  -4.049082  4.565002  -0.248099
