73

 N  1.177139021   -0.1567941643   0.789081252
 C  2.3046911222   -0.1074813312   0.5363479828
 C  3.7069265478   -0.0682072738   0.2451849269
 C  4.4035337762   1.1527501232   0.1444048291
 C  3.7442989124   2.4763989435   0.2399398337
 C  4.3843014551   3.5042450625   0.9391651623
 C  3.8046809354   4.7583224951   1.0385949288
 C  2.5774613777   5.0364937093   0.4245057081
 C  1.9603001918   6.3825484502   0.5252721835
 C  2.7534675955   7.5355140256   0.5327467471
 C  2.1754532566   8.7958621025   0.6269873353
 C  0.7931461168   8.9279038194   0.716175747
 C  -0.0063993425   7.7891360031   0.7099196959
 C  0.5713807969   6.5287151637   0.6148486554
 C  1.9535354857   4.0105582796   -0.2922633728
 C  2.5227669687   2.7484427643   -0.3808614267
 N  5.7255338923   1.1742887048   -0.0246934741
 C  6.4231181674   0.0445927062   -0.134399425
 C  7.8816005996   0.2075973944   -0.3414822919
 C  8.5610147521   1.1983918416   0.3734924927
 C  9.9201511567   1.393717025   0.191735255
 C  10.643454119   0.6210846442   -0.7250287437
 C  12.0983131128   0.8382017989   -0.9233834651
 C  12.9241852835   1.1754343272   0.1548642867
 C  14.2864001118   1.3802934882   -0.0292897942
 C  14.8491517086   1.2532206901   -1.2954960994
 C  14.0384723706   0.9188166345   -2.3758377428
 C  12.6763999295   0.712991195   -2.191666985
 C  9.9536952811   -0.3541756666   -1.4518614521
 C  8.5947474215   -0.5623326276   -1.2630338067
 C  5.7887614569   -1.2114737792   -0.0436168353
 C  6.5387913715   -2.4314199917   -0.0951255564
 N  7.1379729454   -3.4202055824   -0.1269200154
 C  4.4045083468   -1.2793990593   0.1543480151
 C  3.7075369799   -2.584692485   0.3035121571
 C  3.8909947163   -3.3225295475   1.4565092597
 C  3.2501406359   -4.5654528293   1.6814386639
 C  2.4192160766   -5.062459957   0.7121385147
 C  2.2363966455   -4.3185701384   -0.471253677
 C  1.3671224594   -4.9632664228   -1.3754462969
 C  1.1005727862   -4.3615102969   -2.5774052452
 C  1.7132901723   -3.1144862375   -2.8650973752
 C  2.5622078975   -2.4839489536   -1.9833270712
 C  2.8509256696   -3.0815557335   -0.7281534463
 C  0.9007493886   -6.2667336171   -0.7636677522
 C  1.6002507687   -6.3309861642   0.62755544
 H  5.335033376   3.3084011543   1.4227912772
 H  4.3043950373   5.5283551194   1.6172557071
 H  3.831758836   7.4469519234   0.4432907545
 H  2.8083824077   9.6782394478   0.6237239051
 H  0.341593147   9.9125427629   0.7904386687
 H  -1.0858079877   7.8804076254   0.7859978079
 H  -0.0623897265   5.6474710078   0.6313971073
 H  1.0208685869   4.2054788696   -0.811389892
 H  2.0235040158   1.9880754225   -0.9710511254
 H  8.0153910731   1.8163215714   1.0783387522
 H  10.4231963046   2.1736135255   0.7541142734
 H  12.5003878831   1.2584265422   1.1508861088
 H  14.910952147   1.6343111804   0.8219731453
 H  15.9132897938   1.4138405865   -1.4395798303
 H  14.4660788478   0.8238393508   -3.3694957949
 H  12.0516113714   0.4729242066   -3.0463572394
 H  10.4860381682   -0.9712436229   -2.1683369985
 H  8.0906630651   -1.3151818359   -1.8587204
 H  4.5451419058   -2.9299156306   2.2296542178
 H  3.4288984537   -5.0951681975   2.6121505066
 H  0.4390220796   -4.8162769873   -3.3090403852
 H  1.5049063421   -2.642021954   -3.8206963396
 H  3.0111249893   -1.5337861808   -2.2547618034
 H  1.1778582964   -7.119403064   -1.3915575663
 H  -0.1892308349   -6.2901893626   -0.6663479664
 H  2.2366515244   -7.2168469453   0.7182980456
 H  0.871840456   -6.3837060484   1.4429073422
