73

 C  -0.1500836792   -3.6015192559   2.2320170904
 O  0.7809488321   -3.2635440865   1.21360856
 C  0.6584811882   -3.8480763138   -0.0010141249
 C  -0.3660788105   -4.776358358   -0.319427418
 C  -0.4229146146   -5.3262093884   -1.5730647301
 C  0.5253612361   -4.9898259628   -2.5688050782
 C  0.4840492248   -5.5561801391   -3.8651075819
 C  1.4096298201   -5.207842722   -4.8203855702
 C  1.3503676938   -5.8007933835   -6.1775218983
 C  1.2697963177   -4.9954984581   -7.3238209282
 C  1.0931368866   -3.5821032751   -7.1718439952
 N  0.9218616193   -2.4456571036   -7.0399165041
 C  1.278303117   -5.5901691307   -8.6020542359
 C  1.2849597482   -4.8131398846   -9.8627343668
 C  2.0555078761   -3.6587923164   -10.0233329713
 C  2.0580923625   -2.9763220079   -11.2311194751
 C  1.2901294142   -3.418519655   -12.3131174678
 C  1.2869623595   -2.680220633   -13.6006840248
 C  2.4485680263   -2.0601699575   -14.0746931083
 C  2.4441026709   -1.3678271392   -15.2796856904
 C  1.2778852812   -1.2809107912   -16.0336979656
 C  0.1163759863   -1.8933511775   -15.5734040349
 C  0.1209427194   -2.5867656286   -14.3689740988
 C  0.5278603018   -4.5813804677   -12.1479678117
 C  0.5316765562   -5.2724453446   -10.9476806171
 N  1.2480432799   -6.9149381442   -8.7399120393
 C  1.2630678753   -7.7161334602   -7.6765556496
 C  1.1871670761   -9.1669837282   -7.9637148775
 C  1.862546388   -9.6766363261   -9.0768130092
 C  1.7959832901   -11.0251597929   -9.3862874167
 C  1.0366351318   -11.9069437846   -8.6075253506
 C  0.9612577138   -13.3505860184   -8.9441759322
 C  2.0779818565   -14.026943979   -9.4480086354
 C  2.0083804628   -15.3788925891   -9.7626681013
 C  0.8204516688   -16.0803515253   -9.5813927422
 C  -0.2973130011   -15.4188076176   -9.0822446225
 C  -0.2274406818   -14.0673391051   -8.7659423263
 C  0.3464634536   -11.3868056746   -7.5078826718
 C  0.4213857112   -10.039404506   -7.1863657018
 C  1.3757991011   -7.1895082902   -6.3730294356
 C  1.5972455063   -8.054121661   -5.2522434663
 N  1.8053216467   -8.7526414224   -4.353918633
 C  2.4289154987   -4.2676317808   -4.4968266012
 C  2.4982367343   -3.7175846237   -3.2488179693
 C  1.5489336784   -4.0557661021   -2.2452202473
 C  1.5939880605   -3.4987171437   -0.9511994395
 H  0.1451976723   -3.0234399603   3.1085276711
 H  -0.1104399501   -4.6687393806   2.4755954814
 H  -1.1725983039   -3.328387681   1.9501132078
 H  -1.1049428811   -5.0548661009   0.4216904988
 H  -1.2076185317   -6.0371408348   -1.8153706698
 H  -0.3088637544   -6.2611982283   -4.0975826692
 H  2.6788321911   -3.295526804   -9.2138649684
 H  2.6587564361   -2.0778126521   -11.3268456512
 H  3.3699267407   -2.1375123659   -13.5058707913
 H  3.3580000157   -0.8997813902   -15.6331847005
 H  1.2745624314   -0.7392964308   -16.974754089
 H  -0.8009790969   -1.8260286082   -16.1505866755
 H  -0.7969011874   -3.0427741573   -14.0110098674
 H  -0.0602415918   -4.9622265098   -12.9765796292
 H  -0.0548080543   -6.1783810223   -10.8417848675
 H  2.4439777737   -9.0051214656   -9.6989958072
 H  2.3251080378   -11.3953491634   -10.2584882238
 H  3.0162599348   -13.4959021306   -9.575093155
 H  2.8885824712   -15.8870727659   -10.1450545359
 H  0.7660055086   -17.1363784976   -9.8278570541
 H  -1.2314580978   -15.9548773261   -8.9435956662
 H  -1.1119529187   -13.5581760232   -8.3959615633
 H  -0.2490755242   -12.0448929653   -6.883662726
 H  -0.1416397036   -9.6692940772   -6.3366549379
 H  3.1691867001   -4.0055954883   -5.2460269876
 H  3.2877307707   -3.0123202459   -3.006514857
 H  2.3713503268   -2.7865078688   -0.69298385
