74

 N  1.0875034311   -0.0464573636   0.383893055
 C  2.2221488055   -0.0176254893   0.1611748311
 C  3.6334785695   0.0097642335   -0.0854973189
 C  4.3419287833   1.2282934487   -0.100720956
 C  3.6867075088   2.5524237802   0.0166726214
 C  4.2957313344   3.5449828305   0.7904230101
 C  3.7215510632   4.7999760311   0.9086744321
 C  2.5316392067   5.1144335135   0.2410536877
 C  1.9196502018   6.4609728846   0.3640056734
 C  2.7190893372   7.6061241694   0.4527284919
 C  2.1453882279   8.8666517748   0.5685388582
 C  0.7612966854   9.0064434016   0.5994225034
 C  -0.0444682121   7.8753973028   0.5122927484
 C  0.5290773026   6.6149100002   0.3951207637
 C  1.9396629683   4.1243370586   -0.5495586137
 C  2.5034382238   2.8613457251   -0.6585849002
 N  5.6700374153   1.2482716158   -0.2056736835
 C  6.3644621802   0.1188782682   -0.3370571381
 C  7.8318549694   0.2826518363   -0.4735717343
 C  8.4832850422   1.2301046607   0.3217039549
 C  9.8489756066   1.4304832992   0.2061575592
 C  10.6081036197   0.7066808499   -0.7214438957
 C  12.0701007554   0.9287462944   -0.8503789173
 C  12.853076588   1.2124828443   0.2743288275
 C  14.2218045974   1.4213640396   0.1541400833
 C  14.8345311152   1.3509568005   -1.0931265754
 C  14.0669497664   1.0701726128   -2.2192610461
 C  12.6983726602   0.8605505341   -2.0990993296
 C  9.9469114132   -0.2250695917   -1.5275704758
 C  8.5810864607   -0.4381585849   -1.4062454711
 C  5.7204368368   -1.135070525   -0.3369387796
 C  6.4733968055   -2.3498223476   -0.437663925
 N  7.0771449367   -3.3334239829   -0.5138331885
 C  4.3263852619   -1.2034209276   -0.202954032
 C  3.6104513866   -2.5034579798   -0.1666131168
 C  3.9019126115   -3.438619612   0.8337170503
 C  3.2329639428   -4.6551241483   0.8847169433
 C  2.2744056866   -4.936475649   -0.0825754398
 C  1.9807870658   -4.0038110788   -1.0900450925
 C  2.6380966226   -2.7877440443   -1.13359743
 C  0.9155078784   -4.5471888767   -2.0108523657
 C  0.6250319678   -5.9032888908   -1.4137027483
 C  -0.2743846805   -6.8743118842   -1.8278057217
 C  -0.3636384154   -8.0630532871   -1.1049253838
 C  0.4371689998   -8.2768865664   0.0178827416
 C  1.3409675932   -7.3061314698   0.4383504399
 C  1.4289488175   -6.1198662272   -0.2835450511
 H  5.2173647632   3.3205095283   1.3161432034
 H  4.1960790166   5.541435021   1.5432478864
 H  3.799815696   7.5121384982   0.4102643121
 H  2.7833283545   9.7433910008   0.6286169159
 H  0.3132111653   9.9912381109   0.6906661783
 H  -1.1256070763   7.9725522729   0.5425654857
 H  -0.10986898   5.738440794   0.3481391245
 H  1.0384753551   4.3489817347   -1.1106688588
 H  2.0324392623   2.1299844124   -1.3058564704
 H  7.9102761694   1.8113369493   1.0359957371
 H  10.3287109078   2.1774041301   0.8303019512
 H  12.3906322917   1.2506014024   1.2557959617
 H  14.8123491334   1.6331262362   1.0405385253
 H  15.9038538572   1.5144803103   -1.187128098
 H  14.5337975573   1.0197250641   -3.1984398427
 H  12.1077963923   0.6622568416   -2.9882013781
 H  10.507142139   -0.8037667888   -2.2546102485
 H  8.100686401   -1.1551684287   -2.0624399527
 H  4.6464034591   -3.2034490554   1.5875422133
 H  3.4603860533   -5.3683041814   1.6710367743
 H  2.417757042   -2.0652138414   -1.9139600984
 H  0.0259635466   -3.9062976304   -2.029823364
 H  1.2690910726   -4.6210106943   -3.046209452
 H  -0.900895601   -6.7145629817   -2.7009701247
 H  -1.0639192317   -8.8313291736   -1.418959564
 H  0.3537843353   -9.2093522761   0.5680597672
 H  1.9639579732   -7.4735885389   1.3122474701
