76

 C  1.1767296951   1.07379913   0.5271273794
 N  0.0682793878   0.6317793642   1.3457529155
 C  -1.1632010307   1.2604634721   1.4369898076
 C  -1.6281419123   2.390302955   0.7629743475
 C  -2.9218994805   2.8123953698   1.0323382688
 C  -3.7387046523   2.1361454526   1.9508559141
 C  -3.269403717   1.0179468798   2.6232977036
 C  -1.9709954322   0.5740155623   2.3697591567
 C  -1.1671711907   -0.5170214077   2.8763417612
 C  -1.39653857   -1.5240260489   3.8074075434
 C  -0.3867246028   -2.4465753944   4.0739370521
 C  -0.6048437331   -3.5351239811   5.0562001019
 C  -0.490459701   -4.8838035176   4.6860484916
 C  -0.2558431779   -5.2100122785   3.3105834282
 N  -0.0921265254   -5.4711075216   2.1956465866
 C  -0.7163218374   -5.8983706576   5.6374538465
 C  -0.6108900742   -7.3432973   5.3242433487
 C  0.4323245818   -7.8641371067   4.5550417928
 C  0.5134773579   -9.2275176638   4.3104059287
 C  -0.4439156891   -10.111283195   4.8181125001
 C  -0.3591018948   -11.5681320024   4.546979792
 C  0.8807686566   -12.2136115673   4.4793548265
 C  0.9593245185   -13.5779515449   4.2266717948
 C  -0.2000592236   -14.3232696483   4.0353583928
 C  -1.4388763501   -13.6929166241   4.0992022008
 C  -1.517708062   -12.3288259686   4.3533486424
 C  -1.4814923709   -9.5828595722   5.5956628638
 C  -1.5588634302   -8.2240516751   5.8532730811
 N  -1.0631033984   -5.6019994833   6.8894804918
 C  -1.1705094222   -4.3345431652   7.2863002273
 C  -1.5385979092   -4.1396076607   8.7099059272
 C  -0.9088316092   -3.1939753202   9.5223898933
 C  -1.2614334235   -3.0675048911   10.8584660395
 C  -2.2563078439   -3.8717180074   11.4231153139
 C  -2.6384458603   -3.7243048242   12.8497150263
 C  -2.6537754387   -2.464850056   13.4594934018
 C  -3.0126154851   -2.3255066312   14.7949235298
 C  -3.361868396   -3.4429791175   15.5468610597
 C  -3.3495937616   -4.7009611967   14.9522354478
 C  -2.9920730649   -4.840252278   13.6164676803
 C  -2.8767802284   -4.8233050076   10.6047796873
 C  -2.5168032089   -4.9634861898   9.2744331969
 C  -0.9499827012   -3.269176504   6.3902770496
 C  -1.1005446635   -1.9095834047   6.8171197761
 N  -1.2264776811   -0.8114524032   7.1580982008
 C  0.8518565053   -2.3473785895   3.4084898163
 C  1.1053203922   -1.3449662156   2.4898546692
 C  0.0831032881   -0.4327322968   2.2187501383
 H  0.7975911302   1.4940587098   -0.4063075688
 H  1.810773487   0.2208347906   0.2810833964
 H  1.7796553594   1.8308379534   1.0400718399
 H  -1.0029585804   2.9250228626   0.0559290336
 H  -3.3084135014   3.6890206115   0.5210964162
 H  -4.7458690628   2.495508076   2.1373186715
 H  -3.8994166898   0.4960555741   3.3377657737
 H  -2.3574891205   -1.5991373629   4.3068129262
 H  1.202661791   -7.2115780521   4.1592048979
 H  1.3287453717   -9.6062012799   3.7027697311
 H  1.7916298053   -11.647023222   4.6463539316
 H  1.9309032066   -14.0612635633   4.1857196109
 H  -0.1383094102   -15.3890951962   3.8375388053
 H  -2.349708763   -14.2636470148   3.9445383579
 H  -2.4893017494   -11.8452892261   4.3812289824
 H  -2.2260071737   -10.2463694605   6.0233880167
 H  -2.3625256697   -7.8351704058   6.4690879737
 H  -0.111639319   -2.5739215589   9.1279855373
 H  -0.7349752068   -2.347720877   11.4766386374
 H  -2.4022137213   -1.5833096879   12.8780095223
 H  -3.0256045557   -1.3383078881   15.2471426637
 H  -3.6419252205   -3.334189209   16.5902478946
 H  -3.6133856176   -5.5805587974   15.5318566127
 H  -2.9676362485   -5.8292368013   13.169336762
 H  -3.664428077   -5.4508472837   11.0089393245
 H  -3.0097192793   -5.7065744323   8.6569203915
 H  1.6358319286   -3.0618914952   3.6382730118
 H  2.0729772578   -1.275926031   2.0055428035
