83

 N  1.0378831851   -0.1588150406   -0.2299545378
 C  2.1941146341   -0.1267535692   -0.2250042761
 C  3.626551059   -0.0942493755   -0.2146514815
 C  4.3219684705   1.13120307   -0.1879265721
 C  3.6467676755   2.4516280771   -0.1805163664
 C  4.134812086   3.4544530103   0.6624698719
 C  3.5399028083   4.7051656975   0.690682794
 C  2.4524382071   5.0048748492   -0.1386752766
 C  1.8166727268   6.3457829053   -0.1112675373
 C  2.583774284   7.4995951182   0.0850790031
 C  1.9868075099   8.7543599345   0.112250376
 C  0.6112007017   8.8797203684   -0.0556198424
 C  -0.1624967318   7.7399522273   -0.251797792
 C  0.4345163855   6.4852263367   -0.2800667345
 C  1.9850734299   4.0049557022   -0.9972003276
 C  2.5678931877   2.7457757235   -1.0171165326
 N  5.6535044209   1.1665649607   -0.1555109792
 C  6.3681913214   0.0419804011   -0.1703658375
 C  7.8397344255   0.2164720491   -0.1594657133
 C  8.3985294659   1.2269361535   0.6288063759
 C  9.7679795988   1.4336658139   0.6457239741
 C  10.625186989   0.6519748506   -0.1384316567
 C  12.0915914266   0.8812181258   -0.1249775388
 C  12.7455815811   1.258592159   1.0533523988
 C  14.1179839558   1.4772363927   1.0667493357
 C  14.863346903   1.3234087432   -0.0980676546
 C  14.2249636575   0.947969882   -1.276065393
 C  12.8526829674   0.7285762513   -1.2894891878
 C  10.0580455752   -0.3439735398   -0.9396346059
 C  8.6879261481   -0.5623538604   -0.9501974809
 C  5.7381905112   -1.218948878   -0.1756408405
 C  6.5047445343   -2.4223358924   -0.0420323629
 N  7.1186174697   -3.3934710979   0.0924514057
 C  4.3382407649   -1.3034526158   -0.2004250878
 C  3.645474651   -2.6148012586   -0.1920935466
 C  2.7537447504   -2.9355001507   0.8500314652
 C  2.0950543778   -4.1512696422   0.8924792629
 C  2.3308001592   -5.0580053194   -0.141346176
 C  3.2122318191   -4.7501558461   -1.2005905421
 C  3.8773802514   -3.5287215274   -1.2174771672
 C  3.1991274336   -5.8861750824   -2.0970077181
 C  3.8592715489   -6.1766555237   -3.2919185913
 C  3.6264291427   -7.397363523   -3.9058179735
 C  2.7455308513   -8.3271556542   -3.3340017579
 C  2.077495257   -8.0602156734   -2.1480272231
 C  2.3099188229   -6.8271851865   -1.5397336971
 N  1.7885818278   -6.3158748541   -0.3516462419
 C  0.8510565118   -6.9706848748   0.494974635
 C  1.1738579039   -7.2180588845   1.8278943742
 C  0.2508239667   -7.8494153128   2.6539139441
 C  -0.9822986539   -8.250752454   2.149335097
 C  -1.296037265   -8.0101358983   0.8150732846
 C  -0.3863368692   -7.362334544   -0.0127813466
 H  4.9759432822   3.2415182404   1.3133251302
 H  3.9149121837   5.4543353752   1.380471762
 H  3.6604116522   7.4167904469   0.1974432419
 H  2.6009138373   9.6378751143   0.2590673445
 H  0.144826731   9.8600122851   -0.0333140196
 H  -1.2377798649   7.8258459701   -0.376905313
 H  -0.181985425   5.6017405596   -0.4142853386
 H  1.1690283543   4.2187442713   -1.6796280463
 H  2.1964134762   2.0057055643   -1.7170287054
 H  7.7496678779   1.8518143334   1.2326505695
 H  10.1758985938   2.2294226664   1.2604677431
 H  12.1784792961   1.3628052165   1.9731792522
 H  14.6070062894   1.7631101561   1.9932566467
 H  15.9354634515   1.4950018143   -0.0880216893
 H  14.7960248337   0.8316480004   -2.1923650114
 H  12.3643242239   0.4563760743   -2.2200997995
 H  10.6956085486   -0.9682978456   -1.5569113408
 H  8.2826443744   -1.3310843056   -1.5988364013
 H  2.5913578127   -2.2206234635   1.6500306118
 H  1.4188963317   -4.3841606638   1.7067950484
 H  4.5528433656   -3.2831063998   -2.0312000231
 H  4.5455390075   -5.4574763381   -3.7292615423
 H  4.1307176318   -7.6393706546   -4.8360190894
 H  2.5815620748   -9.2797361679   -3.8286999908
 H  1.4007524263   -8.7862444843   -1.7116358611
 H  2.1453890644   -6.9213951947   2.2095078968
 H  0.5029580549   -8.0376120988   3.6928496082
 H  -1.697869753   -8.7502591997   2.7949846438
 H  -2.2579824082   -8.3172256935   0.4165716889
 H  -0.6326731478   -7.1534673019   -1.0486830171
