93

 C  7.8995260098   -3.6834627221   3.0329137393
 O  7.0229972504   -3.8832395763   1.9354601878
 C  5.7455619052   -4.2525223929   2.2008162768
 C  5.2264754921   -4.4405782399   3.4811209566
 C  3.8986676077   -4.8306328137   3.6367606438
 C  3.0716326437   -5.0195741613   2.534873095
 N  1.7023021584   -5.3822881711   2.7130847489
 C  0.905151948   -4.5508134805   3.5567999527
 C  0.7958917398   -3.1826080231   3.2928804758
 C  0.0526498705   -2.3631421219   4.1237881999
 C  -0.6149007802   -2.8969042034   5.2308902982
 O  -1.3252738913   -2.0162153688   5.9781529837
 C  -2.0114362919   -2.5105326866   7.1171979099
 C  -0.5161840086   -4.2623132698   5.4985465687
 C  0.2508243797   -5.0745252597   4.6676285445
 C  1.1708722078   -6.5176738207   2.1056787622
 C  2.0030369949   -7.5596616503   1.6614762058
 C  1.4696734872   -8.6871341816   1.0628492007
 C  0.0912672352   -8.8224187726   0.8696736754
 C  -0.4687916958   -10.0311183958   0.2265032968
 C  -0.21635592   -11.3146183191   0.7370925149
 C  0.5125431453   -11.446495853   1.9637086862
 N  1.0771258712   -11.5486504131   2.9682178483
 C  -0.7755250241   -12.4464766424   0.1110937881
 C  -0.5407714785   -13.832577774   0.580443721
 C  -1.6026798003   -14.7418391999   0.5761358367
 C  -1.4136589584   -16.0501706661   0.9903083187
 C  -0.1536574832   -16.5011047879   1.4019464567
 C  0.0507530939   -17.9042548948   1.8402475505
 C  -0.6420153965   -18.954891955   1.2282626283
 C  -0.4486813874   -20.2685611113   1.6386745385
 C  0.4398877959   -20.5570250331   2.6698895261
 C  1.1342031201   -19.5209634659   3.2868792147
 C  0.9419133092   -18.2073747872   2.875787671
 C  0.9092544946   -15.5924381116   1.3825176361
 C  0.7209234086   -14.2774184322   0.9827057984
 N  -1.5769468753   -12.322923606   -0.9463913885
 C  -1.8368762872   -11.1246938375   -1.4682461402
 C  -2.7310339809   -11.1243799831   -2.6521282797
 C  -3.8570342764   -11.9529673548   -2.647765363
 C  -4.7094627173   -11.9924909327   -3.739039838
 C  -4.4552532044   -11.2227482903   -4.8806110649
 C  -5.3685082448   -11.2668468545   -6.0499137336
 C  -6.7506763341   -11.3961865471   -5.8729765704
 C  -7.6074118179   -11.4343567265   -6.9666158608
 C  -7.0987616325   -11.3447514336   -8.2586390655
 C  -5.7261353675   -11.2171466845   -8.4478717222
 C  -4.8694241975   -11.1778427834   -7.3542988034
 C  -3.314229525   -10.4147484545   -4.8878229514
 C  -2.4653818637   -10.3615269077   -3.7912625251
 C  -1.2937304432   -9.9516420441   -0.907373473
 C  -1.5940430836   -8.6670329877   -1.4659308528
 N  -1.8371876588   -7.6286466656   -1.9139299809
 C  -0.7376699792   -7.7845052766   1.3075025575
 C  -0.2149934806   -6.6579189262   1.9167154405
 C  3.596430187   -4.814057359   1.2545781647
 C  4.9194055819   -4.446159001   1.0883316368
 H  8.8614911976   -3.4012963483   2.6030053634
 H  8.0223522165   -4.6002361325   3.6205421303
 H  7.5472067886   -2.8780014702   3.6871402183
 H  5.841869693   -4.2974504392   4.3608336154
 H  3.5018367841   -4.9842707059   4.6353958748
 H  1.3036614349   -2.7616433325   2.4307414645
 H  -0.0330535423   -1.2997913757   3.9247621436
 H  -2.7625589733   -3.2588534699   6.8401544759
 H  -1.318275053   -2.9454391877   7.8461258783
 H  -2.510313211   -1.6503616223   7.5655577832
 H  -1.0164000716   -4.7032267185   6.352048994
 H  0.3355440026   -6.1339066569   4.8889691372
 H  3.0757487859   -7.4892357801   1.7934609282
 H  2.1427119308   -9.471127643   0.7297479796
 H  -2.5862952854   -14.4108731777   0.2611713944
 H  -2.2614963822   -16.7272984187   1.0108631995
 H  -1.3229699416   -18.7453344452   0.4091797134
 H  -0.9905040484   -21.0701854439   1.1456400266
 H  0.5906995309   -21.5833487533   2.990597541
 H  1.8247948772   -19.7342712301   4.0973168412
 H  1.4742772731   -17.4058235193   3.3784845933
 H  1.9052251663   -15.9223235548   1.659201129
 H  1.5745524599   -13.6091526383   0.9508769831
 H  -4.0640069787   -12.5668318658   -1.7777915192
 H  -5.5742311233   -12.6475619591   -3.7124215609
 H  -7.1616716117   -11.4466639174   -4.8694191094
 H  -8.67754803   -11.5274877466   -6.8073641768
 H  -7.768152563   -11.3745312618   -9.1130537972
 H  -5.3179106983   -11.1535376062   -9.4521582565
 H  -3.7990189975   -11.0974881577   -7.5163351939
 H  -3.0900712462   -9.8049835979   -5.7569148108
 H  -1.5825447513   -9.7340559242   -3.8402000042
 H  -1.8132879398   -7.8602370206   1.1836259312
 H  -0.8875638702   -5.874998855   2.2450635238
 H  2.959607981   -4.9475658603   0.3856956034
 H  5.3318863446   -4.2880107488   0.0971083195
