77

 N  1.0063716598   0.0883148597   1.1895908163
 C  2.1106296088   0.1045489191   0.8461316756
 C  3.4851172716   0.1019455683   0.4417924497
 C  4.2029726842   1.3015844383   0.2619762728
 C  3.5865741107   2.6430065374   0.3834593811
 C  4.3041897117   3.6666966454   1.0093091576
 C  3.7645704056   4.9369305713   1.1273145967
 C  2.4999528881   5.2347222803   0.6049108165
 C  1.9248286744   6.5978391835   0.7248155524
 C  2.7427031456   7.7303011277   0.6402755215
 C  2.2040985191   9.006599314   0.7516886778
 C  0.8374332266   9.1754415449   0.9513703724
 C  0.0136180796   8.0573910942   1.0374927004
 C  0.551840837   6.7810005023   0.9246921073
 C  1.7972968992   4.2117445325   -0.0397709725
 C  2.3273934392   2.9341294029   -0.1466023356
 N  5.506313448   1.2841735346   -0.0157519957
 C  6.1633887536   0.1345743075   -0.1634600128
 C  7.6047319227   0.2520667195   -0.4866995067
 C  8.3634160733   1.2385336362   0.1503765805
 C  9.7116018644   1.3843205908   -0.1314883864
 C  10.3442968034   0.5639379152   -1.073447019
 C  11.7894462949   0.7211422875   -1.3736071658
 C  12.6964525392   1.0616017863   -0.3635510775
 C  14.0500609124   1.2078537359   -0.6424830881
 C  14.5232861412   1.0175684276   -1.9370407549
 C  13.6316083272   0.6789878506   -2.9501680157
 C  12.278041089   0.5320167704   -2.6713172626
 C  9.5736816358   -0.4036532957   -1.725638927
 C  8.2256463963   -0.561625939   -1.4373142276
 C  5.5050372437   -1.1022345157   -0.0022277095
 C  6.2132973098   -2.3448266906   -0.0875132021
 N  6.7749111068   -3.3544146469   -0.1416921025
 C  4.1402895368   -1.127948025   0.3066845313
 C  3.42986041   -2.4149461673   0.545515309
 C  3.685858982   -3.1003748819   1.7332924199
 C  3.0421006601   -4.292498206   2.0213117237
 C  2.1243546602   -4.8400804108   1.1222119912
 C  1.4393520158   -6.0752603538   1.3964551388
 C  0.5546793816   -6.5959710945   0.5165336658
 C  0.2669317886   -5.9358480281   -0.7288458664
 C  -0.6429824059   -6.4596034645   -1.6515599078
 C  -0.9000325455   -5.8008205783   -2.8477181593
 C  -0.2551586777   -4.607515959   -3.1468473505
 C  0.6611161505   -4.0500516657   -2.2501781624
 C  1.3502641931   -2.8202062872   -2.5272720677
 C  2.2329446259   -2.2905623638   -1.6498226756
 C  2.5192727542   -2.9351678511   -0.3934323707
 C  1.8612343434   -4.160502228   -0.0966013673
 C  0.9292880581   -4.7152897101   -1.026247209
 H  5.2847890345   3.4552300405   1.4215258287
 H  4.3270719466   5.7041057595   1.6493198521
 H  3.8074961162   7.6126171185   0.4644725309
 H  2.8550233602   9.8725067053   0.6757311929
 H  0.4168042142   10.1725870756   1.0391432589
 H  -1.0533469561   8.1776790869   1.1999938708
 H  -0.0989070959   5.9164989809   1.0133829239
 H  0.8320399502   4.4209685855   -0.4889319043
 H  1.7672297511   2.1756245736   -0.682030881
 H  7.8889241944   1.8909306764   0.8752526866
 H  10.2769230812   2.1608785697   0.3733533204
 H  12.3433503521   1.1928372205   0.6546577394
 H  14.738138012   1.4654678849   0.1571657234
 H  15.580809021   1.1320208992   -2.1549487414
 H  13.9892377119   0.5348035464   -3.9653454257
 H  11.5906387816   0.287527887   -3.4751493409
 H  10.0346074833   -1.0548922889   -2.4609834275
 H  7.6568375478   -1.3106918056   -1.9769601762
 H  4.3925909474   -2.6842687007   2.44453984
 H  3.2476679673   -4.8083100688   2.954303318
 H  1.6526154623   -6.5799679775   2.3341968218
 H  0.0419629913   -7.5287106867   0.7335241179
 H  -1.149390314   -7.3927343082   -1.4217709766
 H  -1.6096866118   -6.2220350201   -3.5531163653
 H  -0.4572237858   -4.0952313279   -4.0831247563
 H  1.1484172734   -2.3197649279   -3.4699687665
 H  2.7426066096   -1.3652692192   -1.8958048238
