72

 C  1.4254391384   -0.1873896543   0.0904452021
 C  0.9828387448   -0.0075920856   -1.3350984143
 C  1.8435593369   0.5118843792   -2.2687673307
 C  1.4564230939   0.6865061436   -3.6126866419
 C  0.200535422   0.3312323944   -4.0364467567
 C  -0.1447126387   0.5038925882   -5.473348535
 C  -0.2918411573   -0.5963182529   -6.3277227959
 C  -0.0181379433   -1.9058173832   -5.8160749873
 N  0.2280545446   -2.9544280826   -5.3945562914
 C  -0.6466739552   -0.3917665438   -7.6765972686
 C  -0.9243409201   -1.4946889823   -8.62433277
 C  -1.6471102338   -2.6310586646   -8.2520124244
 C  -1.9226346212   -3.6249531851   -9.179866665
 C  -1.4825787427   -3.5204123036   -10.5032619778
 C  -1.7767991743   -4.5856762144   -11.4939560023
 C  -2.9925124775   -5.2781560245   -11.461822553
 C  -3.2703160569   -6.2708690121   -12.3938785788
 C  -2.337587811   -6.5913469065   -13.3754327451
 C  -1.1242646034   -5.9114834999   -13.4166709063
 C  -0.8467090105   -4.9178220317   -12.4855021915
 C  -0.7642937753   -2.3758442947   -10.8703850247
 C  -0.4971904309   -1.3756290257   -9.950418308
 N  -0.7279722215   0.839033471   -8.1801359767
 C  -0.5350604044   1.9121177134   -7.4157397035
 C  -0.6137183934   3.2186227458   -8.1076544407
 C  -1.5504237592   3.3906443043   -9.1315943683
 C  -1.638863652   4.593332422   -9.8127282963
 C  -0.7834331023   5.6592491912   -9.5082514095
 C  -0.8775248676   6.9463624215   -10.2413770222
 C  -2.118460593   7.4468513091   -10.6514759895
 C  -2.2078250101   8.6527434091   -11.3365478982
 C  -1.0581670955   9.3811749345   -11.6259678452
 C  0.1817680496   8.8935764774   -11.224770989
 C  0.2712786615   7.6884005574   -10.538523695
 C  0.1652114934   5.4733766821   -8.4975661661
 C  0.2496033333   4.2744449476   -7.804760857
 C  -0.3005309874   1.7784002224   -6.0307709358
 C  -0.2729969543   2.9184212448   -5.1634330647
 N  -0.2747452716   3.8321415715   -4.4541839597
 C  -0.742404701   -0.2005828868   -3.100325219
 C  -2.0681827177   -0.5465512594   -3.4703724184
 C  -2.9504558902   -1.0494786855   -2.5506293794
 C  -2.5524545761   -1.2293975091   -1.2097570898
 C  -1.2821344687   -0.8951183118   -0.8195009822
 C  -0.3411303386   -0.369774522   -1.743312226
 H  0.8046491345   0.3935971787   0.7812715186
 H  2.4613387836   0.1372770599   0.2139233898
 H  1.3598450955   -1.2353528222   0.4028016123
 H  2.8495703163   0.7934003097   -1.972881224
 H  2.1707966497   1.0925856298   -4.3223291803
 H  -2.0231116195   -2.7376831551   -7.2404291718
 H  -2.4798531665   -4.5007668749   -8.8638821603
 H  -3.7372686459   -5.0232643636   -10.714266121
 H  -4.2230551766   -6.7906214118   -12.3566905957
 H  -2.5549447708   -7.3666983823   -14.1038618421
 H  -0.3862633148   -6.1587550115   -14.1739215592
 H  0.1113821577   -4.4081932019   -12.5168027337
 H  -0.4287512034   -2.2560848374   -11.8954000095
 H  0.0477647755   -0.4891626841   -10.2556937755
 H  -2.2124699255   2.5713772886   -9.3892886019
 H  -2.3698087785   4.6990769763   -10.6077039371
 H  -3.0247463164   6.8981092033   -10.4146215271
 H  -3.1811175755   9.0273700108   -11.6391344744
 H  -1.1281619703   10.3231513125   -12.1613944594
 H  1.0860208852   9.450448578   -11.4516080296
 H  1.2463787517   7.3094045318   -10.2486614524
 H  0.8412446337   6.2809474946   -8.23674495
 H  1.0112210804   4.1615651335   -7.0412647753
 H  -2.3906536224   -0.4025269745   -4.496043048
 H  -3.9605127204   -1.3069505644   -2.8539993501
 H  -3.2567475266   -1.6288283803   -0.4866096931
 H  -0.9874791925   -1.0300458516   0.2149600494
