78

 C  0.374173914   0.2904533847   -0.2999143966
 N  1.3733217927   -0.7620104248   -0.1808058226
 C  2.198974334   -0.7590148147   0.9801211164
 C  2.1353255779   -1.7985877096   1.9102337665
 C  2.9290954761   -1.764681418   3.0508307251
 C  3.7779089145   -0.6867130406   3.2853329257
 C  3.8341724263   0.3556958844   2.3654132383
 C  3.0558781078   0.3173093901   1.2139077486
 C  1.3398165746   -1.8367744453   -1.0482413002
 C  2.3797174201   -2.7888952041   -1.0805893043
 C  2.3493091213   -3.8450010913   -1.9689170243
 C  1.2994753941   -3.9977789608   -2.8847442253
 C  1.2774572816   -5.1318773426   -3.8316682428
 C  1.3673095256   -6.4606708362   -3.3843773793
 C  1.3748524911   -6.7243609639   -1.9761380743
 N  1.3515662228   -6.9370891977   -0.8392464593
 C  1.3268565611   -7.5230262102   -4.3088288063
 C  1.4351140654   -8.9473812699   -3.9130081843
 C  0.6228191027   -9.8935854391   -4.5447796542
 C  0.7128532378   -11.2356528152   -4.2134225728
 C  1.6327379698   -11.6823180591   -3.2569679564
 C  1.7349863551   -13.121559988   -2.9086688742
 C  1.550338492   -14.1090202191   -3.8830400127
 C  1.6474682645   -15.4566401548   -3.5576372734
 C  1.9302363422   -15.8434510709   -2.2512737019
 C  2.1153565478   -14.8712923064   -1.273162784
 C  2.0190126612   -13.5235765446   -1.5985596458
 C  2.4578600199   -10.7333455883   -2.644948011
 C  2.3596942715   -9.3863510721   -2.9621611727
 N  1.167442323   -7.2964818924   -5.6124987763
 C  1.0874720858   -6.051787668   -6.0814136861
 C  0.9283784377   -5.9328543993   -7.5517248447
 C  0.0398235932   -6.7907049188   -8.2064030837
 C  -0.1262542088   -6.7211522781   -9.5800565748
 C  0.6058022559   -5.8086512269   -10.3492297073
 C  0.4292385874   -5.7367569372   -11.8213484257
 C  -0.832602251   -5.9143966793   -12.399863727
 C  -0.9997000421   -5.843891423   -13.7778096395
 C  0.0920470472   -5.5967144564   -14.6042959157
 C  1.3521803838   -5.4197284036   -14.0413005346
 C  1.5191426177   -5.4884400957   -12.6632497913
 C  1.5110129795   -4.9707561768   -9.6908863468
 C  1.6694832222   -5.0269113324   -8.3132858925
 C  1.1447335975   -4.940370767   -5.217249553
 C  1.0468034078   -3.6087232853   -5.7366378743
 N  0.9671413536   -2.5334981932   -6.1558649769
 C  0.275757568   -3.0477844873   -2.8662383048
 C  0.2848932602   -1.9942804238   -1.9667905945
 H  0.6369613988   1.1038498143   0.3752450078
 H  -0.6295885964   -0.0656511955   -0.0328241165
 H  0.3432619056   0.68587268   -1.3196330778
 H  1.4614080054   -2.6315485308   1.7367770822
 H  2.8720765803   -2.5795170297   3.7663982388
 H  4.3914706079   -0.6592113334   4.1805159483
 H  4.4954738113   1.1997253132   2.5369968162
 H  3.1097513833   1.1220736619   0.4869624454
 H  3.2242794968   -2.6895586964   -0.4099174067
 H  3.1759344134   -4.5488752142   -1.9719277109
 H  -0.095795035   -9.5673522853   -5.2887412555
 H  0.0463722166   -11.9452609327   -4.6927623448
 H  1.349186537   -13.8201769374   -4.9100162409
 H  1.508084289   -16.2069078185   -4.3302485621
 H  2.0058995212   -16.8963008638   -1.9969290469
 H  2.3295854014   -15.1622529897   -0.2490810867
 H  2.1457819841   -12.7758499824   -0.8217306007
 H  3.2074689253   -11.0525786994   -1.928369335
 H  3.036859324   -8.6837258275   -2.4889771914
 H  -0.5260262804   -7.5143081667   -7.6293774505
 H  -0.8191213828   -7.4011130945   -10.0651683782
 H  -1.6955475574   -6.0880715368   -11.7643504254
 H  -1.9887672284   -5.9765158849   -14.2061532536
 H  -0.0385497256   -5.5421462952   -15.6808450288
 H  2.2122154223   -5.2333708554   -14.6775921988
 H  2.5106464538   -5.3675826865   -12.2378476464
 H  2.0923763891   -4.2520668168   -10.2592611682
 H  2.3915319713   -4.3715936737   -7.8390867551
 H  -0.5649821014   -3.1438084747   -3.5459867361
 H  -0.5446528143   -1.2990830752   -1.9750289144
