74

 N  1.3362525782   -1.3531368726   1.5218916526
 C  2.4188241322   -1.1970887692   1.1438295094
 C  3.7595249514   -1.0038541342   0.6755101514
 C  4.0654260494   -1.2230182016   -0.6706625643
 C  5.3624499284   -1.0334122926   -1.117434829
 C  6.3738653807   -0.6256786497   -0.2396692977
 C  7.7610137292   -0.4240086093   -0.7253084918
 C  8.0043847332   0.1081810807   -1.9953944128
 C  9.3002044361   0.3047551743   -2.4488620639
 C  10.3877718419   -0.0405910203   -1.644408961
 C  11.7774783008   0.1580281929   -2.1286456557
 C  12.2647171565   1.4310361615   -2.4542309152
 C  11.3999243573   2.5651436665   -2.3162316537
 N  10.692143083   3.473361696   -2.2073401124
 C  13.5775843659   1.5728119092   -2.9480947357
 C  14.1668926047   2.8777745141   -3.3319642195
 C  14.0159791412   4.0253106865   -2.5505525522
 C  14.6092045596   5.2200720703   -2.9330472156
 C  15.3629862857   5.3095736463   -4.1073050249
 C  15.986735732   6.5915363802   -4.5205616944
 C  16.5088668227   7.4753369252   -3.5693707295
 C  17.0932265722   8.6747640199   -3.9583961633
 C  17.1652231193   9.0148238176   -5.3057506728
 C  16.6490181014   8.1448510593   -6.2611284063
 C  16.0661079404   6.9445997635   -5.87241067
 C  15.5174398198   4.1525080875   -4.8805221985
 C  14.9391668813   2.9544480995   -4.494828317
 N  14.3685783003   0.5131884863   -3.1103445372
 C  13.9523909599   -0.7102097917   -2.7859511625
 C  14.9360715346   -1.7994375279   -2.9870610679
 C  15.0967407869   -2.8356755626   -2.0642496874
 C  16.0525862375   -3.8197424071   -2.2701434252
 C  16.8707188901   -3.8070904719   -3.404304067
 C  17.8855115215   -4.8675731526   -3.6244301122
 C  17.6336172712   -6.1897794595   -3.2412047284
 C  18.5834535154   -7.1832235474   -3.4469026747
 C  19.8041393276   -6.8738060293   -4.0388051929
 C  20.066947445   -5.562682006   -4.4235501669
 C  19.1167862456   -4.5693276707   -4.2188700496
 C  16.708807835   -2.7612439256   -4.3212630896
 C  15.7661978581   -1.7681702777   -4.1116327274
 C  12.6464698613   -0.9275206904   -2.3014219352
 C  12.150603895   -2.2542826047   -2.0833228293
 N  11.7330370175   -3.3215849812   -1.9276047654
 C  10.1536173673   -0.5810935042   -0.3784256438
 C  8.855977992   -0.7622192492   0.076124517
 C  6.0506012387   -0.4115645604   1.1054679381
 C  4.7574511517   -0.5964298524   1.5655175488
 H  3.290734815   -1.5463986187   -1.3572235367
 H  5.5954881255   -1.2245029939   -2.159418894
 H  7.1731203863   0.3924964128   -2.6319441949
 H  9.4657747735   0.721228879   -3.4372374404
 H  13.4518636845   3.9905626974   -1.6252684289
 H  14.4695726807   6.0994026408   -2.3128411336
 H  16.4768483559   7.2128686689   -2.5164329235
 H  17.4994272646   9.3431779719   -3.2050568462
 H  17.6211618911   9.9523276075   -5.6093931823
 H  16.6937869901   8.4034849692   -7.3148556535
 H  15.6495390706   6.2833684864   -6.6259905346
 H  16.1157851207   4.184852996   -5.7852880318
 H  15.0818368356   2.065773279   -5.1000276799
 H  14.5028421886   -2.8613314946   -1.1573933797
 H  16.1804170436   -4.5948083351   -1.5217578525
 H  16.6776125241   -6.4475625244   -2.7960244854
 H  18.3654677104   -8.2044022707   -3.1487410678
 H  20.5463792681   -7.6499123154   -4.1991326369
 H  21.0190483917   -5.30880582   -4.8799499857
 H  19.3420409297   -3.5467916571   -4.5054012706
 H  17.3163112507   -2.7330178704   -5.2200364802
 H  15.6556661302   -0.966519034   -4.8336520203
 H  10.9893725686   -0.8549805532   0.2576446004
 H  8.6954202464   -1.1921425597   1.0592442741
 H  6.8152568414   -0.0762669202   1.7978997312
 H  4.5156960558   -0.4201212569   2.6078971557
