57

 C  0.9730876147   -0.1766818381   -0.369007172
 O  0.2975166152   0.3827505123   -1.4878514914
 C  0.4148015855   1.7083141828   -1.7092067591
 C  1.1632036631   2.5788616194   -0.9154207975
 C  1.2076219532   3.9313346844   -1.2321846337
 C  0.5224242559   4.4410686679   -2.3361542291
 C  0.5833613762   5.8655255348   -2.7194967297
 N  0.5908248442   6.1163455641   -4.0285855
 C  0.6807134323   7.3591083834   -4.5005188206
 C  0.633939229   7.497210421   -5.9700032575
 C  -0.0093383119   8.5686232244   -6.6064186475
 C  -0.0592735679   8.6451147681   -7.9846923617
 C  0.5406950029   7.6540407025   -8.7701387474
 O  0.4482970159   7.8217135633   -10.1055470593
 C  1.0315828909   6.8386921167   -10.9508499201
 C  1.1767698402   6.5749609329   -8.1513261073
 C  1.2076960315   6.5029047857   -6.7659868924
 C  0.8400442231   8.4511652008   -3.617990729
 C  1.1306993099   9.7685515589   -4.0975084037
 N  1.3911899059   10.8313321123   -4.4732886483
 C  0.7680868425   8.2408881832   -2.2369362982
 C  0.8332705265   9.3831502702   -1.2828783052
 C  -0.2592440872   10.2093590099   -1.1684288544
 C  -0.2583776129   11.2907107138   -0.2613559133
 C  0.8424962426   11.5343055732   0.5129683032
 C  1.9951711809   10.7138020857   0.4141688875
 C  3.1467344566   10.967069504   1.2032050853
 C  4.2601582885   10.1781695403   1.0944345826
 C  4.273620687   9.0974041659   0.1841146059
 C  3.1768866057   8.8244056998   -0.5906668552
 C  2.0037887738   9.618757444   -0.4952945663
 C  0.6028043626   6.9257452432   -1.7869671952
 C  0.3986985811   6.7016055734   -0.3878900038
 N  0.2130217375   6.5412590019   0.7427651908
 C  -0.2067176451   3.5481244472   -3.1369406784
 C  -0.2701213543   2.2060599641   -2.8256453896
 H  0.7389104929   -1.2416246027   -0.3799410572
 H  0.6201065825   0.2624092383   0.5701524712
 H  2.0571396646   -0.0434297936   -0.4506267219
 H  1.7199703601   2.2172334925   -0.0601989441
 H  1.8193577906   4.5815459817   -0.6168563496
 H  -0.5072119757   9.3360559334   -6.0243445509
 H  -0.5696720248   9.4653182236   -8.4782214742
 H  2.1127392394   6.7666126299   -10.791700742
 H  0.5725654398   5.8564588917   -10.7959443399
 H  0.8386377017   7.1698611771   -11.9716954455
 H  1.6456557798   5.7928135201   -8.7352024951
 H  1.6977724689   5.6613258943   -6.288985101
 H  -1.140110242   10.0209664194   -1.7743883068
 H  -1.1377861979   11.9217521908   -0.1848389658
 H  0.8533967761   12.3630892315   1.2151365696
 H  3.1253758448   11.8041832511   1.8952296186
 H  5.1365967756   10.3809890748   1.702040711
 H  5.162543411   8.4803430351   0.0968036395
 H  3.2079816417   7.9963676971   -1.2908141572
 H  -0.7341162808   3.9255422057   -4.0059737872
 H  -0.8460677438   1.5172131909   -3.43461626
