74

 C  2.5221257456   0.1249284068   0.2326852217
 O  1.4064818204   -0.7030868846   0.5336845535
 C  1.6355531801   -1.9926070793   0.8581071634
 C  2.9023978363   -2.5778631428   0.9240243782
 C  3.0195337042   -3.915871918   1.2731144517
 C  1.8962542426   -4.7015479457   1.5406573007
 C  2.0794788975   -6.1159804516   1.9246248019
 N  3.1568055495   -6.3840570459   2.6614844861
 C  3.4041670179   -7.6173968543   3.1010672793
 C  4.657666817   -7.7882153789   3.8634092091
 C  5.1107974527   -6.7408700368   4.6805177258
 C  6.288550839   -6.8530409741   5.389655516
 C  7.0651233686   -8.0146483655   5.2867839892
 O  8.2019233263   -8.0311082845   6.0132662984
 C  9.0278211876   -9.1862839375   5.9458539124
 C  6.6406208138   -9.0565844568   4.4608677171
 C  5.4452915355   -8.935995946   3.7622986441
 C  2.4865244768   -8.6646906086   2.8638284306
 C  2.6205582667   -9.9205767011   3.5382851608
 N  2.7110876899   -10.9231017454   4.1092456016
 C  1.37997874   -8.4484337922   2.0276598997
 C  0.4401902925   -9.5415200884   1.6897805193
 C  -0.9415148062   -9.3764319323   1.9159301244
 C  -1.851162512   -10.3744311199   1.6166248289
 C  -1.3605378646   -11.5583522073   1.0630981071
 C  0.0206256917   -11.7441087199   0.8271564385
 C  0.9197828991   -10.7337217786   1.147924172
 C  0.1643081816   -13.0645746949   0.2521131673
 C  1.2584545164   -13.8115976263   -0.1861550569
 C  1.0417391872   -15.0823412072   -0.6964422801
 C  -0.2559146826   -15.6096728266   -0.7695121016
 C  -1.3589970035   -14.8875510001   -0.3378483929
 C  -1.1366907058   -13.6075030697   0.1710385681
 N  -2.0490180209   -12.6829434058   0.6633538857
 C  -3.4912655461   -12.835917047   0.7220527401
 C  -4.0301842996   -13.141070693   2.105760105
 C  -5.2069243193   -12.5318156744   2.5386877951
 C  -5.7399516426   -12.8269686248   3.790196862
 C  -5.094854704   -13.7318635186   4.6261937716
 C  -3.916484124   -14.3407885161   4.2023373183
 C  -3.3885104912   -14.0482951187   2.9498453776
 C  1.2056734033   -7.1500544447   1.5232082866
 C  0.1975066657   -6.9110728152   0.53501214
 N  -0.5943097259   -6.7251432368   -0.2882083849
 C  0.6325104496   -4.0965245208   1.4806767588
 C  0.5028566863   -2.7620646653   1.1483688433
 H  2.111238359   1.1085398381   0.0029113615
 H  3.0734593578   -0.2494097257   -0.6365059225
 H  3.2004533722   0.2069265514   1.0886131763
 H  3.7952564362   -2.0047639243   0.7074260043
 H  4.004482839   -4.366290639   1.3288463805
 H  4.5176138134   -5.8366745603   4.7598876889
 H  6.6324874132   -6.0505521039   6.0337200654
 H  8.4953458601   -10.0777780926   6.2941191166
 H  9.3961332433   -9.3543668373   4.9281333446
 H  9.8723695547   -8.9893038149   6.606924367
 H  7.2320394133   -9.9562987735   4.3469655973
 H  5.1502655314   -9.7471574454   3.1058920533
 H  -1.2998168645   -8.452772088   2.3587604669
 H  -2.9079423421   -10.2382651915   1.8172266181
 H  1.9805773576   -10.8639319335   0.9575569957
 H  2.2626633114   -13.402064398   -0.1265405863
 H  1.8817825552   -15.6771008152   -1.0411523084
 H  -0.4032097323   -16.6080916349   -1.1702657426
 H  -2.3562794452   -15.3106475154   -0.3944323121
 H  -3.9527883996   -11.9206057785   0.3405743227
 H  -3.7631294156   -13.6346218085   0.0272718244
 H  -5.709230686   -11.8182004392   1.890572605
 H  -6.6562081144   -12.3421154774   4.1140117935
 H  -5.5054646995   -13.9600256377   5.6052255221
 H  -3.405695292   -15.0473071812   4.8499877955
 H  -2.4688191084   -14.5278761574   2.6273734188
 H  -0.2597383759   -4.6615276485   1.7272151421
 H  -0.4726459757   -2.2885150726   1.1158658771
