63

 C  1.144143992   0.3264909135   -0.0403493848
 O  0.3208647852   1.3471493617   -0.5889979573
 C  0.8015961723   2.6077729036   -0.6210745645
 C  -0.0526401578   3.5764430104   -1.1641409741
 C  0.3486211599   4.8943937166   -1.2347089129
 C  1.6204053012   5.286507991   -0.7898077921
 C  1.9985139423   6.7140537579   -0.8671074315
 N  1.0302186794   7.5847236224   -0.5815644538
 C  1.2524385731   8.8992190561   -0.6007380931
 C  0.1017894406   9.7541466501   -0.2418284414
 C  0.2384671212   10.9118535573   0.5368812522
 C  -0.865787892   11.6680158193   0.8793419056
 C  -2.1421469784   11.2924988742   0.4453153514
 O  -3.1554419087   12.0995455175   0.8230189825
 C  -4.4756275964   11.7583531571   0.4208996648
 C  -2.2960941667   10.1363846941   -0.3240898746
 C  -1.18024163   9.3775600058   -0.6479110236
 C  2.5167400067   9.4124194269   -0.9635399329
 C  2.7252673679   10.8200172464   -1.1276430074
 N  2.8979820475   11.9526738986   -1.2877876321
 C  3.5598209748   8.5333324865   -1.2822636721
 C  4.8932703307   9.0440200168   -1.692601548
 C  5.6530672997   9.8129009228   -0.8073215479
 C  6.8991785847   10.2879481633   -1.1829218605
 C  7.4060522358   10.0129834497   -2.4600134637
 C  8.6892252016   10.5051346302   -2.8515199244
 C  9.7754779336   10.9202560501   -3.1839538043
 C  11.0598678666   11.4106278111   -3.5778208878
 C  11.8284611571   12.1757739639   -2.689512729
 C  13.0744085461   12.6495830224   -3.0765741651
 C  13.567735879   12.3679210591   -4.3477092457
 C  12.8093979634   11.6084259101   -5.234607317
 C  11.5623665237   11.1305195002   -4.856244769
 C  6.6380001463   9.2490406579   -3.3487748413
 C  5.3972759744   8.7659329479   -2.9655659866
 C  3.2892877962   7.1597675378   -1.2261347742
 C  4.3222635979   6.2337051819   -1.5814994202
 N  5.1623551716   5.496235793   -1.8793691875
 C  2.4577982507   4.3144281391   -0.2425069738
 C  2.0597047698   2.9855607852   -0.1508384573
 H  0.5684685816   -0.596357236   -0.1175730471
 H  1.3740296632   0.5226170412   1.0124175806
 H  2.0767701228   0.2199654403   -0.6046001317
 H  -1.0296081213   3.2696505803   -1.5226751227
 H  -0.3222189251   5.6381939671   -1.6505492952
 H  1.2111915214   11.2117695528   0.9099500832
 H  -0.7633066265   12.5555996492   1.4945282382
 H  -4.5706599047   11.750956158   -0.670202927
 H  -4.7748896725   10.7837164017   0.8209174208
 H  -5.1236152175   12.5320036924   0.8340888731
 H  -3.2722027569   9.8212039701   -0.671199904
 H  -1.3057474042   8.4777372287   -1.240198401
 H  5.2728045604   10.0298173795   0.1857682957
 H  7.4879186282   10.8759815744   -0.4872686551
 H  11.4409475772   12.3936204998   -1.6996303903
 H  13.6629734542   13.241609505   -2.3825946871
 H  14.5427160556   12.7401295716   -4.647018985
 H  13.1910278352   11.3866898569   -6.226429137
 H  10.9687263331   10.5381882055   -5.544880476
 H  7.0194801535   9.0368193672   -4.3416406349
 H  4.8103657514   8.1806851081   -3.6659081178
 H  3.4288219406   4.5875850018   0.1546327158
 H  2.7315919873   2.262166275   0.2935135996
