67

 C  1.0867304703   -1.6179505042   -1.5618810759
 O  0.5887478314   -0.2868117514   -1.5333709601
 C  0.6884099497   0.4579387595   -2.6541362699
 C  1.2528369922   0.0124223007   -3.8519397406
 C  1.2977015944   0.8661434247   -4.9450519738
 C  0.8101794166   2.1731064958   -4.8717946876
 C  0.8651920331   3.0272447491   -6.076496808
 N  0.6621442503   2.4045349409   -7.2369381603
 C  0.6488056333   3.0709260021   -8.3905601706
 C  0.4573104503   2.2489407216   -9.6033763748
 C  -0.3990485999   1.1384994105   -9.5453318185
 C  -0.5900290038   0.3318631545   -10.6477685562
 C  0.0903479317   0.5994778151   -11.8428500763
 O  -0.157607592   -0.2454616493   -12.8651572485
 C  0.5008824162   -0.0149286774   -14.1036966267
 C  0.9649378042   1.6848924469   -11.9098100555
 C  1.1373721423   2.4985067425   -10.7959692932
 C  0.7879074959   4.4759659443   -8.4117335472
 C  0.6371678984   5.2182955296   -9.6268953241
 N  0.5039141166   5.8289575757   -10.6005037239
 C  1.0677470895   5.1635001419   -7.2233669603
 C  1.2844319026   6.6342608425   -7.2163305006
 C  0.2479637349   7.5025268255   -7.5649327423
 C  0.4524050779   8.8748351813   -7.560832605
 C  1.6959665908   9.4152997608   -7.2177759392
 C  1.9181614407   10.8865277479   -7.1697658628
 C  2.370265291   11.4485227541   -5.9970277352
 C  2.5752958174   12.8394634422   -5.873196229
 C  2.3259458668   13.6663151422   -6.9334702896
 C  1.8786354171   13.1348153418   -8.1699648634
 C  1.6425089192   13.9821121591   -9.2838742277
 C  1.2397168579   13.4683799095   -10.4869416262
 C  1.0630546382   12.0741856312   -10.6320853157
 C  1.2758241373   11.2303978993   -9.5731858909
 C  1.6761715524   11.7301203966   -8.3042197058
 C  2.7260508201   8.5382372604   -6.8670780211
 C  2.5255678885   7.16457237   -6.8622098575
 C  1.1353927529   4.4130237279   -6.0422311598
 C  1.4911313375   5.0696055997   -4.820775802
 N  1.7935356288   5.6055732874   -3.8410619015
 C  0.2382755084   2.6018714128   -3.6653456707
 C  0.1739760089   1.7570329395   -2.5742605246
 H  0.9046138   -2.026866308   -0.5675011724
 H  2.1619061576   -1.6372963776   -1.7699750794
 H  0.559290989   -2.2250244234   -2.3053382034
 H  1.655383126   -0.9888301782   -3.9424213556
 H  1.729484661   0.5146419633   -5.8757148729
 H  -0.9244862803   0.9217758986   -8.6218101956
 H  -1.264205748   -0.5173172453   -10.6096409604
 H  0.2393649892   0.9648274331   -14.5174758489
 H  1.5883975429   -0.087908009   -13.9967478822
 H  0.1516263782   -0.7969539962   -14.7786457234
 H  1.5203248455   1.9000766626   -12.8140599114
 H  1.843498511   3.3183128657   -10.8646615813
 H  -0.7280706187   7.105174284   -7.8248867437
 H  -0.370753053   9.5350058304   -7.8143018034
 H  2.5515318396   10.808948583   -5.1385270275
 H  2.9220359942   13.2448122329   -4.9276563332
 H  2.4712434114   14.7397147921   -6.8494368975
 H  1.795629894   15.0508267765   -9.1612429444
 H  1.0645394593   14.1256903182   -11.3331725376
 H  0.7611440042   11.668318347   -11.5928970288
 H  1.1477002702   10.1627200229   -9.7077707486
 H  3.7011449406   8.9363613371   -6.6049317617
 H  3.3439820236   6.5022871715   -6.5979438175
 H  -0.1929842624   3.5929183329   -3.5817778806
 H  -0.2818303848   2.0821704812   -1.6450957664
