67

 C  -1.3580864136   -2.4113512305   0.4060928224
 C  0.0367749475   -3.0125382604   0.5190686874
 N  1.0235482923   -2.0662263025   1.0164532107
 C  1.7514952785   -1.1778288875   0.2397620548
 C  1.7601766213   -1.0209395109   -1.1470260802
 C  2.600210466   -0.0542164132   -1.6799687285
 C  3.4126679245   0.7448790879   -0.8614993037
 C  3.3971123112   0.5886457003   0.5160818355
 C  2.5604772196   -0.37790713   1.0761834307
 C  2.2882846454   -0.8043922636   2.4316257203
 C  2.761193712   -0.401922585   3.6760184933
 C  2.288871748   -1.0386278601   4.8217504058
 C  2.7803363658   -0.6351916949   6.1612614104
 C  2.6491690885   0.6808726988   6.6300516503
 C  2.0283128174   1.6612966977   5.7907583286
 N  1.5309964413   2.4524399761   5.1085222381
 C  3.1575454168   1.0309491892   7.8993449771
 C  3.0707709992   2.3957356679   8.4650924785
 C  1.9176452759   3.1858827522   8.3632749924
 C  1.868718932   4.4423170843   8.9367598882
 C  2.977033348   4.950313871   9.6231424634
 O  2.836506949   6.189874092   10.1390148309
 C  3.9264452026   6.7459470715   10.8620513788
 C  4.1304300618   4.1712794364   9.7413128232
 C  4.160473087   2.9045680993   9.174547935
 N  3.7626737576   0.1253609402   8.6683165571
 C  3.890353353   -1.1412616258   8.271558065
 C  4.5635575794   -2.0505976917   9.2233174372
 C  4.1354653339   -3.3684357909   9.4366174648
 C  4.7717772778   -4.1785163575   10.3575186107
 C  5.8633929753   -3.6958871817   11.0881965456
 O  6.4261227909   -4.5638875108   11.9550291762
 C  7.5331441294   -4.1204230093   12.728618797
 C  6.2955754359   -2.3817158657   10.8943726183
 C  5.6377850321   -1.5739575786   9.9773592832
 C  3.4198912542   -1.5538864183   7.0068367876
 C  3.69425358   -2.8710346812   6.5157184137
 N  3.938999048   -3.9246749068   6.1049949032
 C  1.3391446497   -2.0742957867   4.7113516116
 C  0.8457035094   -2.4801157636   3.4846118388
 C  1.3314892558   -1.8426629368   2.3405447249
 H  -1.7178500227   -2.0699104497   1.3815699185
 H  -2.0589584881   -3.1614258814   0.0262075429
 H  -1.3637322231   -1.5591671317   -0.2803404478
 H  0.0324061868   -3.8735399983   1.1917226778
 H  0.3820325085   -3.3722583381   -0.4534233544
 H  1.132341616   -1.6288761779   -1.7896084647
 H  2.6261794798   0.0874022146   -2.7563413874
 H  4.0570003042   1.4925133825   -1.3133284516
 H  4.0238529459   1.2082395514   1.1509749088
 H  3.5024061701   0.3877034181   3.7506665008
 H  1.0345041891   2.8087455971   7.8605116908
 H  0.971607088   5.0487106582   8.8716135995
 H  4.1726623242   6.1402281734   11.7407331228
 H  4.8142301342   6.8494337066   10.2290759048
 H  3.5978658185   7.7340287912   11.1859019267
 H  5.0016493241   4.5386883481   10.2691981065
 H  5.056074788   2.3011145177   9.2756751118
 H  3.2765093729   -3.7604562268   8.9034895979
 H  4.4318836661   -5.1934225032   10.5343568749
 H  8.3763903882   -3.8345587811   12.0908750707
 H  7.2584005045   -3.2773898136   13.3714658373
 H  7.8227669401   -4.9682597242   13.3501711246
 H  7.1352389527   -1.9819854907   11.448901882
 H  5.9739019512   -0.552703854   9.8349606444
 H  0.9695210195   -2.5522643655   5.6130581874
 H  0.1025053609   -3.2674467434   3.4236410968
