81

 C  -0.2180636283   0.3329275815   4.1741415701
 O  -0.9148077617   -0.8982511519   4.3105102107
 C  -0.2174467171   -2.0462509393   4.1745866299
 C  1.1514924145   -2.1120560951   3.9045721799
 C  1.7671422985   -3.3510801949   3.7923552699
 C  1.0450836047   -4.5393210708   3.9188790996
 C  1.7618943928   -5.8295479928   3.8086658512
 N  2.9598054818   -5.8755512558   4.3920743719
 C  3.6928338772   -6.9895386733   4.3738596851
 C  4.9921254665   -6.9173416558   5.0757260639
 C  5.4931096352   -7.9775726239   5.8442177606
 C  6.6960318637   -7.8593786134   6.5134915446
 C  7.4399406534   -6.6773392343   6.426984519
 O  8.6056972221   -6.6610089314   7.1067015582
 C  9.397412888   -5.4814977833   7.05833988
 C  6.9502135375   -5.6084428999   5.672610827
 C  5.7329553799   -5.734961151   5.0180990228
 C  3.2372586604   -8.1439186737   3.7022490598
 C  4.0872785707   -9.2860238516   3.5469330641
 N  4.7809531281   -10.1995167667   3.3948130505
 C  1.9853414898   -8.1407756257   3.0684127078
 C  1.4891654772   -9.3339975577   2.345232262
 C  1.3376421935   -10.55661136   3.0066755577
 C  0.8725014709   -11.6777664075   2.342287808
 C  0.5496297907   -11.6219909715   0.9760715876
 N  0.0848258814   -12.7502394   0.3006731169
 C  -0.5377343786   -13.8255294915   1.0022939033
 C  -1.6431643148   -13.5955871659   1.8282741136
 C  -2.2553236444   -14.6439509978   2.4912212754
 C  -1.7909644499   -15.9534120235   2.3272488923
 O  -2.4649980174   -16.9123706722   3.0094503292
 C  -2.0298520819   -18.2557656915   2.8748481236
 C  -0.6977840662   -16.1934409204   1.4956799913
 C  -0.0757007379   -15.1283987412   0.8489703062
 C  0.2173120484   -12.8686967976   -1.1152816776
 C  1.4697693561   -12.7558493435   -1.7281170371
 C  1.5964783667   -12.8924508573   -3.0987673427
 C  0.475568711   -13.1670769407   -3.88956615
 O  0.7038710403   -13.2953517063   -5.2201891362
 C  -0.4037902796   -13.5728582476   -6.0617545919
 C  -0.7748451965   -13.2931699499   -3.2856694036
 C  -0.8947580781   -13.1337385402   -1.9073932549
 C  0.7102475662   -10.3950140099   0.3109588656
 C  1.1653776923   -9.2761260241   0.9865993792
 C  1.2400142175   -6.9534558462   3.1334953989
 C  -0.0329572225   -6.8934557547   2.4806800233
 N  -1.0582788138   -6.848607461   1.9464520438
 C  -0.3259695907   -4.4567409041   4.1981011927
 C  -0.9480035195   -3.2295143196   4.3287493778
 H  -0.9622807364   1.1159442504   4.3226369685
 H  0.2203138366   0.4348110587   3.1756122409
 H  0.5679770152   0.4326816699   4.9303937801
 H  1.7416081585   -1.2122268801   3.7836078337
 H  2.831823395   -3.3963365371   3.5899253304
 H  4.9265173026   -8.8957447919   5.9509508489
 H  7.077184988   -8.673407684   7.1209055568
 H  9.7088968726   -5.2518039197   6.0337562716
 H  8.8616551364   -4.6236557001   7.4785746394
 H  10.2794427826   -5.6881750637   7.6653797518
 H  7.5045003184   -4.6817656891   5.5917271952
 H  5.3542493994   -4.8996722856   4.4392355448
 H  1.5787868778   -10.6338450078   4.0625467701
 H  0.7663326523   -12.6090562636   2.8854176093
 H  -2.0213511547   -12.5854575922   1.9500645121
 H  -3.1120586601   -14.4702737848   3.1342600481
 H  -2.1017948195   -18.5993886159   1.8366761886
 H  -1.0000190641   -18.3816635746   3.2276584913
 H  -2.6976963251   -18.8528709197   3.4972027022
 H  -0.3145313348   -17.1959423679   1.3499765046
 H  0.780527668   -15.3200989778   0.2098607963
 H  2.3482110839   -12.5585390053   -1.1217503618
 H  2.5658870686   -12.8046250247   -3.5786160759
 H  -0.8768428135   -14.5266192736   -5.8018638076
 H  -1.1519180047   -12.7733401765   -6.0176926006
 H  -0.0045713508   -13.6349979885   -7.0750096701
 H  -1.6606810774   -13.5039772538   -3.8721738473
 H  -1.8719415939   -13.2244527513   -1.443421896
 H  0.4688559283   -10.3152445673   -0.7421194403
 H  1.2797016632   -8.3450646117   0.4403433071
 H  -0.9121199772   -5.3562245813   4.3481762624
 H  -2.0057471137   -3.163940383   4.5605696648
