71

 C  1.1605770805   -0.9716577471   -2.0208466554
 O  0.583616713   0.2306295442   -1.5286876826
 C  0.636397581   1.3317656488   -2.3073603574
 C  1.2248204703   1.3777868855   -3.5736432328
 C  1.2155721863   2.5673625203   -4.2884509204
 C  0.6513207956   3.731425582   -3.7623633633
 C  0.6619620216   4.964930255   -4.5783452057
 N  0.442597152   4.7981086789   -5.8828200876
 C  0.4191557388   5.8357109048   -6.7196815599
 C  0.1419500483   5.5168629708   -8.1359358347
 C  -0.6706383503   6.3241255804   -8.944422012
 C  -0.9339083135   5.9744344059   -10.2547603452
 C  -0.3842471138   4.8083919109   -10.7994618707
 O  -0.6914326946   4.5569802819   -12.0891602177
 C  -0.1718566479   3.377189525   -12.6884654724
 C  0.4209047289   3.9890505647   -10.0041945406
 C  0.6645548241   4.3439860664   -8.6849315754
 C  0.6659712212   7.145171856   -6.2532891591
 C  0.7866325825   8.2442763709   -7.1637456188
 N  0.9110314323   9.1346927268   -7.8918597951
 C  0.9092590467   7.3654276088   -4.8914294304
 C  1.1964070708   8.728398077   -4.3753816421
 C  0.2421381888   9.7409974028   -4.4955248899
 C  0.4998335919   11.0115563384   -4.0025948245
 C  1.730124595   11.2926029852   -3.4097404353
 N  2.0003164525   12.5927513163   -2.9171626373
 C  2.4103403023   12.9055217902   -1.6211268891
 C  2.6196032758   12.0632310095   -0.5292550502
 C  3.0103889407   12.6454165155   0.6680333776
 C  3.1863946687   14.0313560737   0.786581867
 C  2.9649820812   14.8645936693   -0.2992082231
 C  2.5705310894   14.3023277259   -1.5141817126
 C  2.2451035633   14.8609268518   -2.8097301482
 C  2.2316273104   16.160828508   -3.3176082976
 C  1.8795634489   16.360677345   -4.6436509386
 C  1.5482443102   15.2730098369   -5.4640952147
 C  1.5539778392   13.9719952168   -4.9819275407
 C  1.8970434404   13.7787542265   -3.6439020065
 C  2.6940938106   10.2910363594   -3.3029208471
 C  2.4220666578   9.0137123083   -3.7702044072
 C  0.8992273199   6.2499529742   -4.0434211062
 C  1.1782988208   6.434405457   -2.6508522274
 N  1.4126291472   6.5954592692   -1.5294449339
 C  0.0562901976   3.6664741683   -2.4949600471
 C  0.0444287766   2.4844780807   -1.7793852945
 H  1.0033033797   -1.7195183359   -1.242917299
 H  2.2349618557   -0.8547043364   -2.1988909746
 H  0.6707062536   -1.3007227729   -2.9435313647
 H  1.6870935955   0.5002365355   -4.0082577674
 H  1.6683661928   2.5958328953   -5.2736343845
 H  -1.1321798363   7.2184122263   -8.5409132439
 H  -1.5750541195   6.5897433268   -10.8769441906
 H  0.9233067963   3.384991616   -12.7005157926
 H  -0.5258382185   2.4786182088   -12.1719151972
 H  -0.5435463211   3.373765164   -13.7136598149
 H  0.8573079627   3.080399996   -10.3997545562
 H  1.2852762615   3.7015684117   -8.0698976816
 H  -0.7187665072   9.5292778649   -4.9533132903
 H  -0.2573404642   11.7850407701   -4.0688008097
 H  2.4804104055   10.9908149516   -0.6064938217
 H  3.1811868553   12.0099694516   1.5318309293
 H  3.4948875341   14.453110604   1.7380557184
 H  3.091769323   15.9394064894   -0.2079537766
 H  2.4973513071   17.0005689374   -2.6820869741
 H  1.8629126483   17.3657945099   -5.0533061802
 H  1.2825369863   15.4490488859   -6.5021345665
 H  1.3024318263   13.1383521077   -5.6278482601
 H  3.659473716   10.5150062858   -2.8626312926
 H  3.1800420595   8.2417762315   -3.6869473283
 H  -0.4325314081   4.5363089419   -2.0714207245
 H  -0.4288034875   2.4292453867   -0.8048083496
