64

 C  -0.4117377299   0.2554059148   0.7603228282
 O  0.6412586861   0.8585668305   1.5008327534
 C  1.003492197   0.294306695   2.6718696179
 C  2.0478171954   0.9256195862   3.3601739105
 C  2.4856059669   0.4236890639   4.5682085118
 C  1.9139624452   -0.7338744587   5.1185766725
 C  2.4007796835   -1.2232288562   6.4251047251
 N  2.7346845451   -0.2823052394   7.3075803255
 C  3.1521393627   -0.5974596029   8.5331451663
 C  3.5309062146   0.5416710861   9.3947564419
 C  2.8030006732   1.7380026629   9.3021665543
 C  3.1350482034   2.8320007414   10.0740812949
 C  4.2255866925   2.77022329   10.9514882631
 O  4.4762741709   3.8893941001   11.6625041619
 C  5.5704784408   3.8792775651   12.5700150074
 C  4.9754227944   1.5963650436   11.0368106108
 C  4.6216599467   0.4966954297   10.263873698
 C  3.1943250967   -1.9443514415   8.9553437136
 C  3.5094565418   -2.2870475226   10.3093373657
 N  3.7487463438   -2.5744852295   11.4041861571
 C  2.9134150937   -2.9686354818   8.0413330177
 C  3.0088834145   -4.3995094468   8.4320302114
 C  2.1478946891   -4.92993323   9.3944543581
 C  2.2372796988   -6.2666940439   9.7542277415
 C  3.1900700721   -7.1097925626   9.1719631758
 C  3.2854467725   -8.5382602405   9.5623548443
 C  2.1420844849   -9.2769648988   9.8814347303
 C  2.2342263307   -10.6151981826   10.2433653853
 C  3.4676595681   -11.2648272011   10.3038963717
 C  3.5709491987   -12.7064246388   10.7230658368
 C  4.6089291799   -10.5268004404   9.9823864383
 C  4.5224630005   -9.1898516326   9.6191899143
 C  4.0501678653   -6.5667733966   8.2112450137
 C  3.9609721691   -5.2326180298   7.8418500859
 C  2.5392359954   -2.5917679465   6.7446294908
 C  2.3146625471   -3.6086354793   5.7619784838
 N  2.1497240308   -4.4378169189   4.9721515743
 C  0.8670410706   -1.3466473446   4.4289336263
 C  0.4070584253   -0.8430710891   3.2178695656
 H  -0.5300295162   0.8605826571   -0.1390295024
 H  -1.349866779   0.2595979291   1.3254807219
 H  -0.1608003255   -0.7718643544   0.4751784433
 H  2.5000537011   1.8108528908   2.9254737459
 H  3.2904348835   0.9208038995   5.0984697303
 H  1.9612731133   1.794748645   8.6207540927
 H  2.5630020603   3.7520387246   10.0156637718
 H  5.4388528204   3.1161154917   13.3444965195
 H  6.5191398752   3.7120532428   12.0488813693
 H  5.583348426   4.8658109061   13.0343965139
 H  5.8366567199   1.5291948836   11.6894011496
 H  5.2369038556   -0.3938407066   10.3266088868
 H  1.4008154381   -4.2960931622   9.861905844
 H  1.5660979588   -6.6546176014   10.5135478501
 H  1.16426603   -8.8084045048   9.8238872612
 H  1.3278301088   -11.1681051126   10.4756654417
 H  3.8327472163   -12.7895048658   11.7849255107
 H  2.6234560531   -13.2328410159   10.5771958702
 H  4.3466647106   -13.2318169041   10.1575603024
 H  5.5835584048   -11.0064940424   10.0221399456
 H  5.4314457131   -8.640655465   9.3930963011
 H  4.7895206674   -7.1988281319   7.7302398524
 H  4.6391163416   -4.8355995308   7.092926285
 H  0.368505017   -2.2142215303   4.8464114603
 H  -0.4167935723   -1.3369057955   2.718364987
