62

 C  -0.117082405   0.2108683062   0.3864011216
 O  0.6922717843   1.3451339971   0.6672833211
 C  1.0962244145   1.5428467895   1.9397504233
 C  1.8862288057   2.6781702278   2.1630413538
 C  2.342858132   2.9671464761   3.4323011935
 C  2.0484291802   2.1238972287   4.5145198447
 C  2.5417543721   2.4856732046   5.8609057997
 N  2.5067817957   3.7844201788   6.159645476
 C  2.9071511612   4.2323817383   7.3499975676
 C  2.7988341374   5.6909941188   7.5610757642
 C  2.3892417515   6.2467705765   8.7811863599
 C  2.2711340248   7.615080901   8.9305324373
 C  2.5677949291   8.4710643321   7.8638602882
 O  2.432271275   9.7908131976   8.1103835069
 C  2.7103168909   10.70564852   7.0583610812
 C  2.9680829841   7.9321754704   6.6384797899
 C  3.0676927648   6.5552083797   6.4975305624
 C  3.4166131986   3.3438579152   8.3217447187
 C  3.979697682   3.8284418993   9.5464256869
 N  4.4599317447   4.210289483   10.5272431723
 C  3.4832170648   1.9722485467   8.0449167097
 C  4.0401387606   1.0171004042   9.0371606481
 C  3.4177968382   0.8456377947   10.2751973273
 C  3.9344207726   -0.0488215121   11.2007650076
 C  5.0919738695   -0.7820874767   10.9212889613
 C  5.6475278681   -1.7328664677   11.9152682419
 C  4.7984078605   -2.4953753067   12.7259756894
 C  5.3103922112   -3.3859999345   13.6547845656
 C  6.6949053047   -3.5264029489   13.7866406587
 C  7.2324734881   -4.4460868719   14.7454246532
 N  7.6665850976   -5.188761643   15.5195373505
 C  7.5570081423   -2.7720097513   12.9856442518
 C  7.0314379754   -1.8856995303   12.0604384295
 C  5.7142745965   -0.5976580442   9.6826279231
 C  5.1932198472   0.2849728728   8.7482637837
 C  3.0322298141   1.5424749785   6.7900756311
 C  3.1229561686   0.152118985   6.4590744872
 N  3.2100475054   -0.9720934563   6.2003022704
 C  1.253004405   1.0020025715   4.2810344423
 C  0.7731142718   0.7078500859   3.0098325803
 H  -0.3183419712   0.2445484963   -0.6847683477
 H  -1.064722329   0.2517033069   0.9340979467
 H  0.4048891131   -0.7212322385   0.627799936
 H  2.1267331569   3.3208494481   1.3226569162
 H  2.9481147694   3.8519537972   3.5966261475
 H  2.12716419   5.6070801265   9.6163190402
 H  1.9400398912   8.0457289878   9.869513033
 H  3.7519233054   10.6291430094   6.7284747374
 H  2.0434175113   10.5459616481   6.2044014488
 H  2.5349782927   11.6993600541   7.4718027757
 H  3.2010066467   8.5709369262   5.7956543592
 H  3.3731973247   6.1415688868   5.5426285876
 H  2.521305366   1.4090152748   10.5140909924
 H  3.4406380987   -0.1607550258   12.1604445761
 H  3.7230370738   -2.4061815367   12.6156096853
 H  4.6438387519   -3.9778317928   14.2725181404
 H  8.6307798538   -2.8775203591   13.0955478577
 H  7.7070800143   -1.2894870431   11.4566114724
 H  6.6056826163   -1.1643297796   9.4345540814
 H  5.691254772   0.4109148233   7.7922958547
 H  0.9656067604   0.3534927831   5.1008946717
 H  0.1461463059   -0.1637260292   2.8702430055
