71

 N  1.4687857181   0.1162016882   1.3542295304
 C  2.5521249419   0.0918275374   0.9479694374
 C  3.8934767432   0.0605750055   0.4441722126
 C  4.133223539   0.2892542576   -0.9137094973
 C  5.4316763342   0.2590742062   -1.3941587483
 C  6.5104552768   0.0020104522   -0.5395283297
 C  7.8980874098   -0.028780663   -1.062649977
 C  8.3015386709   0.8443441906   -2.079733711
 C  9.5987557586   0.8187981512   -2.5642192799
 C  10.528917509   -0.0960289979   -2.0615128401
 C  11.912782982   -0.0787965462   -2.5900191353
 N  12.4084169739   1.1251261011   -2.8698054892
 C  13.6526891677   1.2682379991   -3.3211713055
 C  14.0673312328   2.6577770523   -3.6258036088
 C  13.6186819795   3.6940426078   -2.8013874416
 C  13.9682822719   5.0077139961   -3.0659478156
 C  14.7584873067   5.3302545762   -4.1753336461
 C  15.1268488623   6.7381726454   -4.4616375733
 C  15.3947170572   7.6308986906   -3.4168863194
 C  15.7403003125   8.9468391406   -3.6746958457
 C  15.8225275969   9.3930072131   -4.9968018816
 C  16.1798618565   10.7535199961   -5.2711407562
 N  16.4686858044   11.852002572   -5.4929065886
 C  15.5573732153   8.515439137   -6.0520248034
 C  15.2135180214   7.2017467527   -5.7799464147
 C  15.1867168871   4.2928974571   -5.0089971832
 C  14.8511571271   2.9744910866   -4.7379589373
 C  14.5056509503   0.1537292676   -3.4598507157
 C  15.8981203744   0.3253698806   -3.7508390136
 N  17.027352309   0.4678409706   -3.9570092771
 C  14.0049901583   -1.1366420798   -3.237141285
 C  14.8509516733   -2.3398966524   -3.4315242541
 C  15.0554666819   -3.2432136111   -2.3529944469
 C  15.8340271217   -4.3540435445   -2.5212993913
 C  16.4408862554   -4.638179093   -3.7720357785
 C  17.2463634394   -5.7873380567   -3.976483243
 C  17.814448018   -6.031086916   -5.1991163463
 C  17.6057017985   -5.138638812   -6.2774674308
 C  16.8335048993   -4.0201483481   -6.1098605811
 C  16.2333530211   -3.7405081855   -4.8546601091
 C  15.4339253963   -2.5891458882   -4.6515991121
 C  12.670477303   -1.244682066   -2.8202963135
 C  12.0763264021   -2.5437349239   -2.7120354887
 N  11.5969363102   -3.5947633939   -2.6531886256
 C  10.1339531234   -0.9646430598   -1.0413859928
 C  8.8379994497   -0.9268100602   -0.5483212579
 C  6.2522977037   -0.2253109943   0.8178069514
 C  4.9587476904   -0.1975979669   1.3116071617
 H  3.3042626795   0.4825949536   -1.5856856186
 H  5.606351212   0.4179937589   -2.4527954919
 H  7.6001643518   1.5675790188   -2.4825538523
 H  9.9007601429   1.5109426261   -3.3423272236
 H  12.9931520348   3.4608002493   -1.9469493487
 H  13.6031319562   5.7947313242   -2.4143648875
 H  15.352468214   7.2874563543   -2.3889131927
 H  15.9536875879   9.627815562   -2.8580892746
 H  15.6143916949   8.8664531022   -7.0765735123
 H  14.9899911679   6.5333632862   -6.6044087915
 H  15.8026427895   4.5131963056   -5.8746396938
 H  15.1861622349   2.1972453684   -5.4155620334
 H  14.6042965304   -3.0334858163   -1.3885192293
 H  15.9990674745   -5.0358615767   -1.6921321818
 H  17.4033193292   -6.4695264313   -3.1457647534
 H  18.4294622929   -6.9134888581   -5.3472065963
 H  18.0625305467   -5.3462804516   -7.2401731999
 H  16.6691041773   -3.3303998873   -6.9328671253
 H  15.2740305092   -1.9129810934   -5.4865079169
 H  10.8410421215   -1.6617185455   -0.6059400265
 H  8.5531944535   -1.6174165833   0.2383565589
 H  7.0742234578   -0.4064265516   1.5020630893
 H  4.7704624049   -0.3677288865   2.3659848005
