75

 C  1.6349042502   -0.8217407657   -0.1283126453
 O  2.6641154298   -1.0806667163   0.814883334
 C  2.6222497819   -0.4201332115   1.9932983205
 C  3.6841610093   -0.7346059035   2.8856539465
 C  3.7584667269   -0.1372092661   4.1083519224
 C  2.7790956896   0.8094040077   4.5173558485
 C  2.833104488   1.4394581729   5.7804667879
 C  1.8820807572   2.3625205527   6.1526804094
 C  1.9601042494   3.0326127821   7.4735730612
 C  2.0778444258   4.4264341937   7.5737702057
 C  2.2055128675   5.2007330789   6.3747179425
 N  2.33144932   5.8150638406   5.4028956491
 C  2.1804533285   5.0342799867   8.8403886027
 C  2.3032252872   6.4993927362   9.0300060884
 C  1.5315212433   7.408031667   8.3025487466
 C  1.6479176033   8.7713046928   8.5317639966
 C  2.542940025   9.2664419648   9.4846051564
 C  2.6734711324   10.7249491552   9.7206867814
 C  1.5560730465   11.5649588745   9.6423738776
 C  1.6718562986   12.9274520553   9.8614426675
 C  2.9219259276   13.4744622794   10.1648192484
 C  3.0494383883   14.8835684121   10.3927122312
 N  3.1521037468   16.0214512124   10.5769004603
 C  4.0479038538   12.6504206586   10.2471003195
 C  3.9176835408   11.2894630675   10.0263547744
 C  3.3091328166   8.3505996177   10.2150326327
 C  3.1831055649   6.9881332277   9.9998836848
 N  2.1904716178   4.303942586   9.9547335796
 C  2.0623988511   2.9791990662   9.9037176752
 C  2.0643599382   2.2862218114   11.2154130074
 C  1.1542477411   1.2733382606   11.5242377336
 C  1.1657287694   0.6756805375   12.7763782536
 C  2.088053646   1.0661913355   13.7515364938
 C  2.1024258878   0.4210900572   15.087006186
 C  1.8177157007   -0.9428666038   15.2245472958
 C  1.8295403   -1.5514983737   16.4685115508
 C  2.1303364483   -0.7949421192   17.6047487012
 C  2.1464656392   -1.4180241924   18.8952137845
 N  2.1595371126   -1.9211621406   19.9372932286
 C  2.4162555722   0.5680889764   17.4856429678
 C  2.4008218636   1.1639794602   16.2356524584
 C  2.9931299916   2.0868444734   13.43822708
 C  2.9752072327   2.6947290125   12.1937262368
 C  1.9437787064   2.3045089298   8.6719381009
 C  1.8414328931   0.8759169473   8.623923737
 N  1.7633332147   -0.2773546773   8.5845339831
 C  0.8285750171   2.6811909045   5.2559493728
 C  0.7495548587   2.0726819045   4.0328520708
 C  1.7211831653   1.1233082884   3.6229663501
 C  1.6583647525   0.4911704584   2.3540867361
 H  1.8537971344   -1.4484013614   -0.9935709753
 H  1.63026408   0.2304195419   -0.4336040152
 H  0.6509842567   -1.0878524224   0.2734462228
 H  4.4253193707   -1.458667427   2.5636006392
 H  4.570201145   -0.3797872473   4.7879642777
 H  3.6537454317   1.194630646   6.4484424105
 H  0.8157967876   7.0573316167   7.5674377288
 H  1.0425782775   9.457207084   7.9485205088
 H  0.5792017181   11.1458547644   9.426668625
 H  0.79864933   13.5680714979   9.8056248739
 H  5.0176651468   13.0787415134   10.4756634464
 H  4.7998267916   10.6602072679   10.0726562214
 H  3.9953544921   8.7056687472   10.9768181504
 H  3.7730843613   6.2912290713   10.5849081816
 H  0.4056135322   0.9680218954   10.802086288
 H  0.426953139   -0.0858286326   13.0031345128
 H  1.6024774646   -1.5412690033   14.3458259694
 H  1.6141062567   -2.6101595488   16.5633634503
 H  2.6423453417   1.153943547   18.3698267521
 H  2.6044741091   2.2263090517   16.1552203807
 H  3.7319550802   2.3982778287   14.1692454408
 H  3.683459282   3.484370402   11.9676972689
 H  0.0727065407   3.4005162551   5.5550257325
 H  -0.0660809795   2.3131114525   3.3572676014
 H  0.8420321901   0.7455281837   1.6886496724
