81

 N  1.839261285   0.0163434678   2.1073074329
 C  2.88023313   0.0093921576   1.6017684154
 C  4.1693936794   0.0005713992   0.9758598037
 C  4.2788346906   0.2366800721   -0.3974258402
 C  5.5277356278   0.2285506747   -0.9959705363
 C  6.6846183178   -0.0140125375   -0.2456049775
 C  8.0191064359   -0.0215836395   -0.8928598963
 C  8.3173598465   0.8664299197   -1.9328466861
 C  9.5664402214   0.864622171   -2.5313737913
 C  10.5493612612   -0.0423342919   -2.1242439757
 C  11.8798513289   0.0026870561   -2.7763167907
 N  12.3538925284   1.2207535289   -3.030455869
 C  13.552046308   1.3881342822   -3.5866959164
 C  13.9487257468   2.7943066686   -3.8399233653
 C  13.63929225   3.7641814382   -2.8817778845
 C  13.9795525256   5.0912244505   -3.0857416366
 C  14.6187461012   5.4949960804   -4.2636555732
 C  14.9788303745   6.9167531782   -4.4845270944
 C  15.3951450568   7.7217356445   -3.4172765023
 C  15.7323369434   9.05020849   -3.6155872005
 C  15.65640224   9.5978460458   -4.8994033907
 C  16.0022269069   10.9722601309   -5.112348544
 N  16.2813974919   12.0820642422   -5.2844936549
 C  15.2434427926   8.8083304366   -5.9763914862
 C  14.9095181755   7.4812585374   -5.763905132
 C  14.9032625469   4.5252741281   -5.2294739031
 C  14.5785625903   3.192646314   -5.0213186422
 C  14.3759141986   0.282902707   -3.8802894335
 C  15.7061334164   0.4674636746   -4.379767584
 N  16.7841145241   0.6104791011   -4.7736030117
 C  13.8952818204   -1.0177598905   -3.6757916063
 C  14.716515148   -2.2065933527   -4.0213743636
 C  15.928957204   -2.4406745684   -3.3693367625
 C  16.698027282   -3.5477148647   -3.6971964055
 C  16.2839905904   -4.4426009897   -4.68932746
 C  17.0796446238   -5.6552049945   -5.0243911186
 C  16.4701790732   -6.8873080993   -4.9460415815
 C  17.1733350189   -8.0800471217   -5.2196724413
 C  18.4933652045   -8.0319242595   -5.5735608497
 C  19.1616786346   -6.7863419938   -5.6892479208
 C  20.524303363   -6.7250066092   -6.081542815
 C  21.1631028575   -5.5228918269   -6.224202891
 C  20.4591570418   -4.3208426077   -5.9886128388
 C  19.1447722336   -4.3469927088   -5.601097073
 C  18.4553016225   -5.5771154625   -5.4229656977
 C  15.0672795683   -4.2015085953   -5.3335243705
 C  14.288683708   -3.1006797231   -5.0037748007
 C  12.6096341232   -1.149091221   -3.133574771
 C  12.0539449834   -2.4578575697   -2.9562907206
 N  11.6066750663   -3.5163876163   -2.8257814499
 C  10.2598242741   -0.9262327267   -1.0823802759
 C  9.0131113577   -0.9107436771   -0.4739563888
 C  6.5567103394   -0.2491891024   1.1286555351
 C  5.3141715005   -0.2432741902   1.7400509601
 H  3.3882843697   0.4179662615   -0.9891675311
 H  5.6013223358   0.3933934586   -2.0655531866
 H  7.5722776404   1.5829369354   -2.2627951232
 H  9.7882244581   1.5695196908   -3.3250612126
 H  13.1305040109   3.4691111912   -1.9706932321
 H  13.7243032031   5.8259273079   -2.3292182838
 H  15.4763211991   7.2998264768   -2.421447743
 H  16.0597794148   9.6630960188   -2.7830305723
 H  15.1789899955   9.2375631416   -6.9701710703
 H  14.5707436494   6.8818362255   -6.6018508349
 H  15.3984349137   4.8086350669   -6.1521610825
 H  14.7994323804   2.4703510655   -5.7991488382
 H  16.2645822712   -1.7647615869   -2.5892753327
 H  17.6265971718   -3.7251759604   -3.1645591188
 H  15.4291517518   -6.9451850513   -4.6429831879
 H  16.6595287994   -9.0327065525   -5.1359697968
 H  19.0491467033   -8.942779647   -5.7776420829
 H  21.0488280531   -7.6571031508   -6.2731211099
 H  22.2051981692   -5.4877811463   -6.5268659433
 H  20.9632876545   -3.3683220843   -6.12118284
 H  18.6183338512   -3.4137471742   -5.4387947886
 H  14.7310729206   -4.879028931   -6.1119121774
 H  13.3536960567   -2.9275188001   -5.527089012
 H  11.0128910857   -1.6172432736   -0.7205273701
 H  8.8093577562   -1.6117525771   0.3286654602
 H  7.4414597179   -0.4189922889   1.7326162123
 H  5.2268652849   -0.4197563734   2.8065105725
