95

 C  1.2298905092   -2.4145587196   3.1526991288
 O  1.7722442833   -2.2057490052   1.8585235186
 C  1.3225260439   -2.9880532574   0.8462285943
 C  0.3719928491   -3.9985468096   0.9902449184
 C  -0.0281499757   -4.7337292371   -0.1223043761
 C  0.5237300666   -4.4946780902   -1.3773214548
 N  0.1030670311   -5.2383964817   -2.5205868607
 C  -0.3941223909   -4.5044576491   -3.6393627495
 C  0.1621529241   -4.6756900022   -4.9114461428
 C  -0.31278055   -3.9508231121   -5.9895299912
 C  -1.3421190759   -3.0188905097   -5.8179344557
 O  -1.7313259776   -2.3508833645   -6.9319553452
 C  -2.7750631984   -1.3983473384   -6.8058454863
 C  -1.8921948694   -2.831121468   -4.5506437012
 C  -1.4208455433   -3.5807044173   -3.4757763414
 C  0.1427388292   -6.6315690612   -2.532394077
 C  -0.6673876838   -7.3724130611   -3.40943507
 C  -0.6165999871   -8.7551309654   -3.4251475289
 C  0.2227984506   -9.4579598948   -2.5557977795
 C  0.259223156   -10.9376626881   -2.56600665
 C  0.6004040906   -11.6564593865   -3.7227583815
 C  0.8894365503   -10.9426474935   -4.9309282753
 N  1.1158342097   -10.3653804392   -5.9073683935
 C  0.6593283396   -13.0634751655   -3.6853215814
 C  1.0735457908   -13.895706082   -4.8408740542
 C  2.169645742   -13.5693221917   -5.6422285096
 C  2.5406712844   -14.3932330397   -6.6951332904
 C  1.8245881946   -15.5584495777   -6.9839676099
 C  2.2142533051   -16.4301644443   -8.1188706561
 C  3.5618541822   -16.613118488   -8.4517829072
 C  3.9301433614   -17.426133352   -9.5106808335
 C  2.9437190736   -18.0741421233   -10.2597112641
 C  3.317480651   -18.9176201561   -11.3562967419
 N  3.6191934093   -19.5991966095   -12.241558279
 C  1.5935686026   -17.9020882062   -9.9415602753
 C  1.239452491   -17.0866458336   -8.8797506916
 C  0.7323569382   -15.8851010692   -6.1719369095
 C  0.3697343631   -15.0733283781   -5.1098602422
 N  0.3164496573   -13.7369103051   -2.5886718413
 C  -0.0517873213   -13.0957011927   -1.480865987
 C  -0.4322222921   -13.9634492262   -0.339965342
 C  0.3189089916   -15.1160121228   -0.0912706114
 C  -0.012455598   -15.962416516   0.9537677793
 C  -1.1191029712   -15.6967238181   1.7684505882
 C  -1.4771764177   -16.6081881316   2.8823577824
 C  -0.4797154817   -17.2441673754   3.6312148079
 C  -0.8048391762   -18.0989976191   4.6711273666
 C  -2.1481584665   -18.3321285897   4.9791946877
 C  -2.4916199344   -19.2175866069   6.052441146
 N  -2.7688574607   -19.9330384556   6.9187649802
 C  -3.1569198196   -17.7046802067   4.2424299323
 C  -2.817553102   -16.8519312311   3.2053567044
 C  -1.8810066658   -14.5557330908   1.5006976808
 C  -1.5420105752   -13.6970594492   0.4648229344
 C  -0.0496727082   -11.6884193696   -1.420360621
 C  -0.365804715   -11.0065973196   -0.2005612952
 N  -0.6131435973   -10.4547821903   0.7854692262
 C  1.023115931   -8.7232427068   -1.675477959
 C  0.9956730816   -7.339975818   -1.6686810302
 C  1.4818178771   -3.4855250026   -1.5106689476
 C  1.8708090947   -2.7350872685   -0.4153038926
 H  1.7167111089   -1.687888765   3.8044851303
 H  1.4419116258   -3.425387415   3.5190479407
 H  0.1475846813   -2.2431438322   3.166901904
 H  -0.0738611533   -4.2140230295   1.9535122616
 H  -0.7795009089   -5.5084340455   -0.0058876477
 H  0.9706872274   -5.3860136412   -5.0523922055
 H  0.1137803053   -4.082252431   -6.978664916
 H  -3.7049495802   -1.8647642048   -6.4613036131
 H  -2.4995247051   -0.5892072239   -6.1200922001
 H  -2.9290200959   -0.9858564026   -7.8038625947
 H  -2.6897146599   -2.116705658   -4.3877844894
 H  -1.8589311707   -3.4369565333   -2.4930439789
 H  -1.3502482645   -6.8615014351   -4.0771851343
 H  -1.2669190524   -9.295603718   -4.1059146595
 H  2.7567207411   -12.6810612727   -5.4384262001
 H  3.3907944408   -14.113638703   -7.3084764652
 H  4.3347510761   -16.1303553528   -7.8635953146
 H  4.9772049743   -17.5668802561   -9.7557453338
 H  0.8302535239   -18.4002298789   -10.5291275697
 H  0.1888525202   -16.9427853835   -8.6518018983
 H  0.1728374361   -16.7958794866   -6.3585375734
 H  -0.4691383298   -15.3476744147   -4.4797746095
 H  1.1692633938   -15.343838243   -0.7244943416
 H  0.5832174393   -16.8532136779   1.1238392949
 H  0.5651436531   -17.0535927337   3.4113376818
 H  -0.0241796545   -18.5810517511   5.2492589957
 H  -4.1984299442   -17.8926813455   4.4791365134
 H  -3.6069381583   -16.3858535043   2.6257047262
 H  -2.7428856005   -14.323198678   2.117217995
 H  -2.1646922296   -12.8299568851   0.2759903663
 H  1.7031358755   -9.2374821807   -1.0034482377
 H  1.6479031145   -6.8018083568   -0.9916651269
 H  1.9188928312   -3.2878255114   -2.4844165233
 H  2.6112737391   -1.948133268   -0.5153895195
