80

 C  1.8921069721   0.407175387   -1.0104262419
 N  1.1260649152   0.695343895   0.1940157691
 C  0.1300337764   -0.2461106749   0.5839025669
 C  0.5071918697   -1.5416179422   0.9394224014
 C  -0.4578324284   -2.4839193987   1.277381353
 C  -1.8054641766   -2.1377381451   1.2797172017
 C  -2.1834815271   -0.8439548223   0.9321551053
 C  -1.2235537192   0.096254134   0.5759266808
 C  1.235604337   1.9338192962   0.7948423193
 C  1.9948421667   2.9608546164   0.2020893503
 C  2.1249916816   4.1953335077   0.81652154
 C  1.5256776063   4.4611776647   2.0497249004
 C  1.6755490408   5.7757447458   2.7081894347
 C  1.3368671292   6.9741809946   2.0579417756
 C  0.8107020833   6.9266012136   0.7260696033
 N  0.3860182092   6.8884544831   -0.3492031331
 C  1.533934359   8.2089326458   2.7064788851
 C  1.2212594509   9.5176913628   2.0799742075
 C  0.0262987744   9.751656733   1.3967680901
 C  -0.2403375993   11.0007947619   0.8543545245
 C  0.6799443797   12.0464533586   0.9695103567
 C  0.3978132877   13.3766604265   0.3771534038
 C  -0.9025882307   13.8954494046   0.371378322
 C  -1.1725101951   15.1363600023   -0.1810275074
 C  -0.1328106379   15.8839475021   -0.7416457145
 C  -0.4041341836   17.1692939165   -1.3144712061
 N  -0.6233252223   18.2071436564   -1.7771646474
 C  1.1713741983   15.3810453347   -0.7445284773
 C  1.4271617483   14.1387265185   -0.1885379589
 C  1.872316788   11.8082337769   1.6627125664
 C  2.1336424179   10.5672271528   2.2199951275
 N  2.0287075062   8.2697913314   3.9418221487
 C  2.3309614371   7.1559784354   4.6079892669
 C  2.8390029216   7.3523307   5.9871894891
 C  2.430784481   6.5430489798   7.049942577
 C  2.8968388195   6.7811557626   8.3347181659
 C  3.7857491129   7.8283167651   8.5947275622
 C  4.2855839701   8.0782816524   9.9685196412
 C  4.5486845236   7.0131875776   10.8383380128
 C  5.0161973669   7.2402283897   12.1220829421
 C  5.2288758525   8.5511585808   12.5579717313
 C  5.7133605728   8.7937242253   13.8847635905
 N  6.1047032511   8.9895556504   14.9560883892
 C  4.9704692092   9.6262876518   11.7028277221
 C  4.5036385613   9.3849827103   10.4215902533
 C  4.1860552693   8.640140337   7.5271368237
 C  3.713133011   8.4120756367   6.245377405
 C  2.1849917371   5.8880683571   4.0125272269
 C  2.6635372906   4.713135646   4.6784386328
 N  3.0756169003   3.7684842447   5.203731705
 C  0.783911351   3.4355909666   2.6504241476
 C  0.6334795027   2.2057923731   2.0410398355
 H  1.7597281193   -0.6426800458   -1.2685786758
 H  2.9590362844   0.5905749271   -0.8503982727
 H  1.5573689085   1.0139154603   -1.8619320328
 H  1.5606042477   -1.8047029537   0.9511762309
 H  -0.1521882572   -3.4896165369   1.5499498248
 H  -2.5577237291   -2.8722604147   1.5503216206
 H  -3.2333028731   -0.5664383649   0.9236359719
 H  -1.5199315874   1.1001886771   0.2886631519
 H  2.4858156055   2.8026714893   -0.7492452391
 H  2.7239266645   4.9580707622   0.3289531659
 H  -0.7154741833   8.9668567863   1.3007918971
 H  -1.1723841435   11.1558112036   0.3209241626
 H  -1.7117440615   13.3311371428   0.8222017067
 H  -2.1823193612   15.5317521866   -0.1741294095
 H  1.9747076748   15.9600007851   -1.1868268629
 H  2.4384794828   13.7473791326   -0.2130482827
 H  2.5942464181   12.6085258938   1.7884839726
 H  3.0557796705   10.4037862445   2.767156917
 H  1.7173707311   5.7423927301   6.8890117511
 H  2.5403503306   6.1590420805   9.1490053492
 H  4.4056582777   5.9920443834   10.5016771382
 H  5.2240979369   6.4075277008   12.7850348379
 H  5.1293980621   10.6425063549   12.0464976149
 H  4.2871196922   10.2259213002   9.7716888377
 H  4.8899297873   9.4482655855   7.6967789933
 H  4.0333435808   9.0503511144   5.4292715635
 H  0.3000953806   3.6070034592   3.6071600261
 H  0.0500714213   1.4411214336   2.5385261746
