78

 C  -3.4506854575   -0.0930897292   -0.4318563719
 C  -3.0159447964   -1.4853371851   -0.8021448205
 C  -3.7757840734   -2.2692157815   -1.6726908795
 C  -3.3641280737   -3.5437738722   -2.0383877379
 C  -2.1741057464   -4.0856567822   -1.5408950668
 C  -1.7369477701   -5.4505343743   -1.9248711898
 C  -1.9732522656   -5.9457470481   -3.2121218501
 C  -1.5656786674   -7.2205782175   -3.5750232497
 C  -0.9166284552   -8.0438116747   -2.6521250486
 C  -0.4884662132   -9.4107673529   -3.0394296757
 C  0.4268580074   -9.6176511095   -4.0809373035
 C  1.0239223866   -8.4810210106   -4.7179170247
 N  1.5201869349   -7.5595273013   -5.2100744452
 C  0.8265167318   -10.9270230168   -4.4147310542
 C  1.7750776943   -11.2325686716   -5.5119848952
 C  2.733263819   -12.232833089   -5.323775389
 C  3.6207915507   -12.5588664543   -6.3359359284
 C  3.5670202474   -11.9088214277   -7.5744722877
 C  4.5127446973   -12.2610214217   -8.6613731301
 C  4.9388852983   -13.5829568318   -8.8374397709
 C  5.8216029181   -13.918266586   -9.8504689732
 C  6.2955596844   -12.9237746582   -10.7107552301
 C  7.2101819089   -13.2635265843   -11.760230977
 N  7.9488818434   -13.5382866284   -12.6076331327
 C  5.8799533235   -11.5989449291   -10.5497937794
 C  4.996582411   -11.2777208305   -9.5327645424
 C  2.5938808754   -10.923280754   -7.7643102147
 C  1.7111000491   -10.5866366786   -6.7486241783
 N  0.3733894252   -11.9784436514   -3.7336645911
 C  -0.5053200588   -11.825146143   -2.744542617
 C  -0.9404702984   -13.0754171389   -2.0752664331
 C  0.0157212401   -14.0533473816   -1.7869814351
 C  -0.3510297488   -15.2381426436   -1.1704488952
 C  -1.6882024834   -15.4936225179   -0.8451603005
 C  -2.0800812054   -16.7635177248   -0.1864331613
 C  -1.2409207634   -17.3634783733   0.760256164
 C  -1.5999018167   -18.5474434993   1.3824407736
 C  -2.8175413655   -19.1545571521   1.0619767678
 C  -3.196858141   -20.3786363876   1.7034235187
 N  -3.5028188617   -21.3672763804   2.221359401
 C  -3.6668343185   -18.5699265351   0.1181971613
 C  -3.2955282645   -17.3856436672   -0.4962082523
 C  -2.6440864259   -14.5234787112   -1.15976346
 C  -2.2773740426   -13.3281893162   -1.7616764306
 C  -0.9642645721   -10.5467370724   -2.3692438325
 C  -1.8871526755   -10.384501135   -1.2850200593
 N  -2.6281932195   -10.2472582936   -0.4077654421
 C  -0.6766816595   -7.5597365579   -1.3644178705
 C  -1.078187858   -6.2802000916   -1.0106961994
 C  -1.4140737584   -3.3027305367   -0.6662484054
 C  -1.8298357455   -2.0275948061   -0.3050815149
 H  -3.0985845974   0.6379714278   -1.1698939909
 H  -3.048008094   0.2054379605   0.5403430884
 H  -4.5411424308   -0.0131849646   -0.3918601803
 H  -4.7110685295   -1.8783285148   -2.0649174534
 H  -3.9901598321   -4.1348899294   -2.6999477449
 H  -2.466624228   -5.3202090047   -3.94870142
 H  -1.7603720371   -7.5810736306   -4.5802689543
 H  2.7892525719   -12.7452453532   -4.3697215201
 H  4.3769692167   -13.3155420548   -6.1539842884
 H  4.5607387226   -14.3640360333   -8.1869306268
 H  6.1400080005   -14.9465473087   -9.9821827521
 H  6.2544441811   -10.8287462587   -11.2150785423
 H  4.6939733283   -10.2442943936   -9.4027274449
 H  2.5035558086   -10.4300737773   -8.7263475479
 H  0.9477042987   -9.8411942446   -6.9413312367
 H  1.0542412707   -13.8773653642   -2.0452199367
 H  0.4091826248   -15.9830259124   -0.95910205
 H  -0.3037707309   -16.8885545409   1.0298138009
 H  -0.9460208551   -18.9997025332   2.1199681673
 H  -4.60766467   -19.0470217989   -0.133608584
 H  -3.9516364292   -16.9496731692   -1.2417498167
 H  -3.6880941445   -14.6929716632   -0.9180179231
 H  -3.0462614397   -12.6031834791   -2.0038329236
 H  -0.1669996556   -8.1824177166   -0.6360636633
 H  -0.8923485698   -5.9300242088   -0.0007114413
 H  -0.4768445717   -3.6863363704   -0.2746402415
 H  -1.2173414528   -1.4396714451   0.3734684872
