93

 C  -6.7850562011   -0.3539654172   -4.7987889658
 C  -5.6796625691   0.5326447195   -4.2891557109
 C  -5.9545002995   1.5682659353   -3.3914778674
 C  -4.9328365346   2.3888305314   -2.9302004482
 C  -3.6239538833   2.2003069634   -3.3597558231
 C  -3.3336662832   1.1664586084   -4.2493078884
 N  -1.9939881363   0.9460387366   -4.6768612848
 C  -1.698889489   0.7466782131   -6.0345058034
 C  -2.4673110904   1.3593388283   -7.0342743637
 C  -2.1730544244   1.1617039242   -8.3729774892
 C  -1.1064664299   0.3465779181   -8.7603785089
 C  -0.7947130567   0.1360273064   -10.1948861876
 C  -0.4287755925   1.2027036463   -11.0294485222
 C  -0.4060393002   2.5319677423   -10.4954811272
 N  -0.4002665087   3.6040050515   -10.0612978333
 C  -0.0913276092   0.9573660277   -12.375461703
 C  0.389480162   2.0087917802   -13.3035886099
 C  1.3225936409   2.9738754495   -12.9182097669
 C  1.7745050342   3.9180038256   -13.8287773215
 C  1.3033251517   3.9314578411   -15.1447906124
 C  1.7796301582   4.9478791892   -16.1142322201
 C  3.1037109083   5.4021016385   -16.0835983712
 C  3.5529296404   6.3501173015   -16.9877022979
 C  2.6735117644   6.8625307073   -17.9457567669
 C  3.1320814538   7.8436896729   -18.8842339345
 N  3.5024211244   8.6356916823   -19.6424097389
 C  1.3482324971   6.4203646197   -17.9904319348
 C  0.9122841965   5.4719993128   -17.0802917741
 C  0.3742759897   2.9569504509   -15.5274780081
 C  -0.0672486718   2.0036640124   -14.6249108028
 N  -0.2067666299   -0.2610364658   -12.9002415909
 C  -0.5981598074   -1.2930948286   -12.1553143877
 C  -0.7217343319   -2.5857299984   -12.870793524
 C  0.2322222032   -2.9163047005   -13.8378585286
 C  0.1399319129   -4.1053748401   -14.5420726879
 C  -0.9206817987   -4.9910813209   -14.3187538065
 C  -1.0212596542   -6.2611902482   -15.0780301895
 C  0.1310643591   -6.9775088353   -15.4234327032
 C  0.0472108646   -8.1636187223   -16.1333013434
 C  -1.2055063589   -8.6550228121   -16.5115778107
 C  -1.3004132012   -9.8817437308   -17.2463187604
 N  -1.3769133264   -10.8721508026   -17.8400280912
 C  -2.3662786434   -7.952865985   -16.1748392353
 C  -2.2678927934   -6.7679505487   -15.4647477058
 C  -1.8845506936   -4.6449932153   -13.3673005337
 C  -1.7865999953   -3.4618870802   -12.6493894208
 C  -0.8525656115   -1.1387157417   -10.7779034431
 C  -1.1696784098   -2.2690964375   -9.9567679488
 N  -1.4154892511   -3.1790283301   -9.2863847931
 C  -0.34036951   -0.2655929477   -7.7651787849
 C  -0.6283587711   -0.0699968213   -6.4247996716
 C  -0.9599285893   0.9310101169   -3.698786785
 C  -1.1190048195   0.1997595696   -2.5222055673
 C  -0.1118230667   0.2141685802   -1.5637452236
 C  1.0562410922   0.9358911389   -1.7749617525
 C  1.2328078192   1.6675516423   -2.9528433003
 C  2.5008042191   2.4444447784   -3.1901603109
 C  0.2120473077   1.6652182997   -3.9001639984
 C  -4.3636231145   0.3363851567   -4.7001706287
 H  -7.4320377707   -0.6915247761   -3.9827406622
 H  -6.3871937594   -1.2365133293   -5.3070235256
 H  -7.4209090326   0.182545381   -5.5128095053
 H  -6.9746012353   1.7276774295   -3.052676883
 H  -5.1560505234   3.1925109498   -2.2346416347
 H  -2.8292199124   2.8493130072   -3.0073413565
 H  -3.2978186024   1.9997338696   -6.76133138
 H  -2.7864928739   1.6470076475   -9.1257298767
 H  1.7222948349   2.9814771918   -11.9104923501
 H  2.4938909486   4.6620409721   -13.5032481979
 H  3.7988756119   4.9954861163   -15.3569935108
 H  4.5824687931   6.6898162466   -16.9599471156
 H  0.6662802744   6.8244505922   -18.7305689943
 H  -0.1227898705   5.1492039046   -17.1090270152
 H  0.0097100002   2.9290295376   -16.5490650837
 H  -0.7751421415   1.245175852   -14.9403487244
 H  1.0510202298   -2.2326835952   -14.0331741706
 H  0.8893539884   -4.3372593105   -15.2916877029
 H  1.1056278801   -6.6136759011   -15.1164290459
 H  0.9458088566   -8.7138049518   -16.390135584
 H  -3.33640078   -8.3328801822   -16.4757854656
 H  -3.1728918231   -6.2198533462   -15.2257701102
 H  -2.7170651339   -5.3126634358   -13.1718247211
 H  -2.5612346588   -3.2163966876   -11.9317649794
 H  0.4960254775   -0.9014643574   -8.0382612588
 H  -0.0204701003   -0.5600273922   -5.6733457025
 H  -2.0256567527   -0.3736936431   -2.3605348061
 H  -0.2393563236   -0.3533276974   -0.6465693333
 H  1.8388147803   0.9362392082   -1.0210495461
 H  2.7780486948   3.0316254112   -2.3087802566
 H  3.339077934   1.7713925299   -3.4052608753
 H  2.3981249758   3.1276544525   -4.037607298
 H  0.3252106715   2.2450927888   -4.8111551024
 H  -4.1305896992   -0.476635571   -5.3810940105
