93

 C  5.158533048   -4.973944768   -0.2029768509
 C  3.7182988514   -5.0565148135   -0.6331134132
 C  2.8149195639   -5.8780998688   0.0467392367
 C  1.4866884358   -5.969655784   -0.3438079419
 C  1.0176182145   -5.2213464072   -1.4257811174
 N  -0.3523682357   -5.297325482   -1.8096036804
 C  -1.3436985375   -5.1599003444   -0.795755733
 C  -1.2684361221   -4.1099512704   0.1222717359
 C  -2.2182574439   -3.9890381304   1.1264235519
 C  -3.2776836523   -4.8935973759   1.2388556504
 C  -4.3069678999   -4.7430957347   2.327035081
 C  -3.3445898769   -5.9338172529   0.3122713782
 C  -2.3879790594   -6.0773648303   -0.6864592135
 C  -0.7137600988   -5.5042428119   -3.1461217389
 C  0.1342408222   -6.1971270484   -4.0236360444
 C  -0.2282453971   -6.4037152864   -5.3433853295
 C  -1.4436132676   -5.9240392986   -5.8403099961
 C  -1.831401466   -6.1404066209   -7.2523995149
 C  -1.905221174   -7.4268494068   -7.8096686167
 C  -1.6082561165   -8.5639710768   -6.9900052557
 N  -1.3658118498   -9.4800548237   -6.3268136384
 C  -2.2425424849   -7.5868819663   -9.1680360261
 C  -2.3186263828   -8.9083645534   -9.8387712558
 C  -2.9576350662   -10.005573645   -9.2581382209
 C  -3.0300571862   -11.2154441784   -9.9339227741
 C  -2.4596834192   -11.3673931341   -11.2009696604
 C  -2.5237416249   -12.6661768631   -11.9146312307
 C  -3.6506350403   -13.4897434307   -11.8038859775
 C  -3.7137626791   -14.7042473366   -12.4664149698
 C  -2.6379220678   -15.1162295301   -13.2580459176
 C  -2.6955383612   -16.3728825177   -13.9444896627
 N  -2.7419144309   -17.3874967123   -14.4991767933
 C  -1.5054911959   -14.3060177972   -13.3805598124
 C  -1.4556833334   -13.0940052025   -12.7125357178
 C  -1.8285822172   -10.2611338132   -11.7815181031
 C  -1.7697340462   -9.0474726686   -11.1166595338
 N  -2.506282859   -6.5354117167   -9.9421334571
 C  -2.4793406373   -5.2996037493   -9.4449920203
 C  -2.8238045793   -4.2174298604   -10.3979380004
 C  -3.6323008479   -3.1384666251   -10.0335627536
 C  -3.9628226893   -2.1621645183   -10.9619378611
 C  -3.493604272   -2.2317706396   -12.2769763885
 C  -3.844830648   -1.1826629718   -13.264724738
 C  -3.9588779578   0.1567371207   -12.8732474011
 C  -4.2863554573   1.1416780482   -13.7900533737
 C  -4.5071196446   0.7956830612   -15.126251338
 C  -4.8456457555   1.8095512232   -16.0807372225
 N  -5.1189679865   2.6278734825   -16.8520315604
 C  -4.3984350754   -0.5368529027   -15.5340910228
 C  -4.0698579884   -1.511586457   -14.6068364685
 C  -2.6909078111   -3.3198885052   -12.6388866099
 C  -2.3684625408   -4.3019667095   -11.716851081
 C  -2.1246188333   -5.062495814   -8.1024056191
 C  -1.9450300791   -3.7252869419   -7.6190783014
 N  -1.7727729181   -2.6482593699   -7.2340186691
 C  -2.2865930413   -5.228479764   -4.9682990337
 C  -1.9338500062   -5.023642458   -3.6458751973
 C  1.9053086102   -4.3874417174   -2.1044568677
 C  3.2384142564   -4.3193202787   -1.7154102395
 H  5.2459625456   -4.6085461871   0.826419032
 H  5.7278501805   -4.2993404819   -0.8481797834
 H  5.6402934965   -5.9575755232   -0.2353584042
 H  3.160611288   -6.4674749037   0.8922657484
 H  0.8053852478   -6.6236973541   0.1910303565
 H  -0.4609769334   -3.3886684496   0.0465372093
 H  -2.1411980536   -3.1659650398   1.8323963524
 H  -3.8449790188   -4.7803355017   3.3199035415
 H  -4.8271029391   -3.7814850148   2.2519921311
 H  -5.0581683602   -5.5359292553   2.2757822425
 H  -4.1525947024   -6.6574079801   0.3791864271
 H  -2.4526050216   -6.9051999476   -1.3854459147
 H  1.0823753903   -6.582191606   -3.6678367639
 H  0.4525108252   -6.9396527116   -5.9971537951
 H  -3.4220632347   -9.9193470746   -8.2822883745
 H  -3.5242841089   -12.055793911   -9.4578196577
 H  -4.4983717   -13.1691770204   -11.2081376972
 H  -4.5939555338   -15.3317506529   -12.3787769623
 H  -0.6694311582   -14.6311540333   -13.9898931572
 H  -0.564742319   -12.481230405   -12.7969985331
 H  -1.3974171022   -10.3429983074   -12.7738841784
 H  -1.2897879043   -8.1963257748   -11.5872184192
 H  -4.040442806   -3.0710352264   -9.0312934231
 H  -4.6181416827   -1.3506617094   -10.6635875086
 H  -3.770131663   0.4363361713   -11.8424050044
 H  -4.3651741308   2.1773371253   -13.478219676
 H  -4.5774232645   -0.8035599554   -16.569900122
 H  -4.0069903292   -2.5456986561   -14.9276404593
 H  -2.2978831981   -3.3907408323   -13.6478662312
 H  -1.7445227243   -5.1378857092   -12.0131778743
 H  -3.2384523526   -4.8466621103   -5.3241876219
 H  -2.6082715278   -4.4800956846   -2.9950658731
 H  1.5519245651   -3.7914320062   -2.9399148923
 H  3.9157277901   -3.6659444213   -2.258790382
