75

 N  1.9548398439   -0.0480857049   2.0754090336
 C  3.0029195745   -0.0467266432   1.5847155076
 C  4.3008249634   -0.0443984255   0.9771620443
 C  4.4308149707   0.2205273187   -0.389109341
 C  5.6881466982   0.2207708931   -0.96952033
 C  6.8334345266   -0.0410823071   -0.2079791933
 C  8.1753666715   -0.0382224813   -0.8396801566
 C  8.4841736518   0.8689253161   -1.8599405084
 C  9.7379128701   0.8755242446   -2.4484886336
 C  10.7154157856   -0.0413876413   -2.0508384655
 C  12.0505834444   0.0101061632   -2.6919455884
 N  12.5265791601   1.23011964   -2.9326716621
 C  13.7310274567   1.4019234923   -3.4737404254
 C  14.1247539358   2.808110409   -3.7266468667
 C  13.7858363085   3.7853934392   -2.7862097375
 C  14.1218762037   5.1125004381   -2.9963403545
 C  14.7861006385   5.50827985   -4.1631209768
 C  15.1416027745   6.9305512256   -4.388060274
 C  15.5412252973   7.7415629378   -3.3190609342
 C  15.8750712155   9.0706466256   -3.5186661842
 C  15.812490228   9.6127763089   -4.8055069388
 C  16.1568094703   10.9872553043   -5.0198414701
 N  16.4344369484   12.0973212775   -5.1928448842
 C  15.4152148987   8.8174693221   -5.8841202135
 C  15.0846713892   7.4896508193   -5.6704699899
 C  15.1007891966   4.5307377025   -5.1115515119
 C  14.7798789076   3.1982669997   -4.8967124426
 C  14.5624195479   0.2995923297   -3.7573031108
 C  15.903256882   0.4871034275   -4.2263121064
 N  16.9909190307   0.6292321993   -4.5929402737
 C  14.0781736446   -1.0025681368   -3.5723721541
 C  14.9034709137   -2.1901121923   -3.9125914463
 C  16.0877383336   -2.4502102833   -3.2207453721
 C  16.854057211   -3.562058667   -3.5380585371
 C  16.4662184139   -4.4387837287   -4.5568097745
 C  17.2907182421   -5.6251766109   -4.8966976071
 C  17.9637233673   -6.33994004   -3.8992018746
 C  18.737196357   -7.4510929011   -4.2082631535
 C  18.8314477288   -7.8421692404   -5.5318413753
 F  19.5804407261   -8.9199116425   -5.8406027216
 C  18.1834493985   -7.1652063615   -6.5494376517
 C  17.41408117   -6.0563268892   -6.2224844542
 C  15.2799295434   -4.166598131   -5.2464126045
 C  14.5051035944   -3.0608581869   -4.9284139246
 C  12.7834141701   -1.1384297799   -3.0532881423
 C  12.2229222201   -2.4488096368   -2.9058966867
 N  11.7735879542   -3.509460655   -2.8022428411
 C  10.4159173078   -0.9432350602   -1.0273961316
 C  9.1644072816   -0.9366285264   -0.4288184752
 C  6.6850844866   -0.3046866807   1.159102489
 C  5.4337155812   -0.3074891797   1.7524625239
 H  3.5495754915   0.4177980277   -0.9896129189
 H  5.7783727591   0.4071766306   -2.0341961462
 H  7.7431533369   1.5930646435   -2.1822224491
 H  9.967652063   1.5942509418   -3.2273180179
 H  13.2577808304   3.4958878423   -1.8843965275
 H  13.8444540201   5.8537900453   -2.254127017
 H  15.6120320406   7.3233669208   -2.3208021582
 H  16.1899986318   9.6881831358   -2.6846561477
 H  15.3603888771   9.2427066919   -6.8802456847
 H  14.7586556037   6.8856854201   -6.5103960048
 H  15.6163974477   4.808255955   -6.0249092642
 H  15.0232188433   2.4688940668   -5.6610137012
 H  16.4101610912   -1.7835452177   -2.4270788171
 H  17.7772657575   -3.7384785698   -2.9957435025
 H  17.8682837735   -6.0378212817   -2.8613525856
 H  19.2546529469   -8.0144229565   -3.4393330553
 H  18.2900215967   -7.4998080792   -7.575614908
 H  16.9182368573   -5.5076408937   -7.0165863765
 H  14.9452253708   -4.8369866831   -6.031330477
 H  13.5876800264   -2.8713614205   -5.4768023671
 H  11.1650194895   -1.641899633   -0.6723262885
 H  8.9530118728   -1.6518642308   0.3591158834
 H  7.5600229916   -0.4905009513   1.7726918746
 H  5.3305781439   -0.5053423542   2.813742561
