53

 N  1.2828761982   -0.2599457039   0.4441015298
 C  2.412960925   -0.18978756   0.2081750953
 C  3.8195797048   -0.1096554981   -0.0523064181
 C  4.4937533542   1.1267041458   -0.0039726142
 C  3.7997866609   2.4275592024   0.148121195
 C  4.3729052675   3.4067778842   0.9646177563
 C  3.7673998873   4.6442113635   1.1201242894
 C  2.5878418006   4.9052657182   0.4342585837
 Cl  1.8196048084   6.4677167343   0.6194889071
 C  2.0084871527   3.9591850454   -0.3993807591
 C  2.6179396206   2.719157979   -0.5364834503
 N  5.8222922105   1.1863373488   -0.0640769991
 C  6.5499052414   0.0835868634   -0.2274962835
 C  8.0187205061   0.2815071721   -0.2463151285
 C  8.8922010341   -0.6064755466   0.3853438859
 C  10.2615304548   -0.3767090479   0.3789370665
 C  10.7522908207   0.7470115005   -0.2707412387
 Cl  12.4787484354   1.0380039371   -0.2911629692
 C  9.9049955182   1.6506708847   -0.8995579192
 C  8.5387339221   1.416614424   -0.8748970471
 C  5.9355076785   -1.1725818565   -0.4006332303
 C  6.7063160058   -2.3223896875   -0.7702779963
 N  7.3227997455   -3.2457195078   -1.0944453147
 C  4.5428084356   -1.2886096115   -0.2840080632
 C  3.8639796657   -2.6017555876   -0.400646909
 C  4.2024970822   -3.6535431933   0.4541293929
 C  3.56157563   -4.8784877481   0.3465699521
 C  2.5753971642   -5.0945079187   -0.6220533544
 C  1.8957645362   -6.4092459184   -0.7388286226
 C  1.596047501   -7.1639314436   0.4008150952
 C  0.9592022547   -8.3943515664   0.2914152009
 C  0.6111184406   -8.8943601267   -0.9595553431
 C  0.9044307155   -8.153604742   -2.100321492
 C  1.5400254435   -6.9225229924   -1.9910917827
 C  2.2474700893   -4.0371631192   -1.4775813053
 C  2.8761182335   -2.8061408875   -1.367004023
 H  5.2970893244   3.1911940903   1.4887548583
 H  4.2075262565   5.395948151   1.7653991515
 H  1.0978394618   4.185245243   -0.9422697503
 H  2.1756119605   1.9926790894   -1.2086408147
 H  8.5115582891   -1.471762311   0.9160163075
 H  10.934579703   -1.0622868591   0.8810315645
 H  10.3054531686   2.5247759453   -1.4003306017
 H  7.8649655456   2.1165078999   -1.3560395115
 H  4.9632854348   -3.5112890646   1.2150320159
 H  3.8472698623   -5.6838240428   1.0152353739
 H  1.8446519291   -6.7755799065   1.3836375527
 H  0.7285702485   -8.9612584338   1.1884114996
 H  0.114045049   -9.855934241   -1.044962515
 H  0.6433408739   -8.5379209484   -3.0818051032
 H  1.781277183   -6.3632579222   -2.8897472026
 H  1.4767075957   -4.1701968311   -2.2295975462
 H  2.6043459689   -2.002420798   -2.0438949652
