53

 C  3.0005881305   0.5047972158   0.9035009236
 O  1.8487415732   -0.325600096   0.8370110983
 C  1.8290834342   -1.450667626   1.5794532941
 C  2.8555601071   -1.863215281   2.3944563122
 C  2.7280901483   -3.0614085918   3.1252538727
 C  1.6046647745   -3.8452883334   3.0446968796
 C  1.5528391395   -5.1088163707   3.8272146597
 C  1.3910936903   -5.0902816502   5.2175822074
 C  1.1808712359   -3.8303673489   5.8678682914
 N  0.9921929854   -2.813575039   6.3855008397
 C  1.3530381764   -6.3020781349   5.9359005409
 C  1.1935924316   -6.3705503627   7.4089207825
 C  0.3681450986   -7.3585755785   7.9529524353
 C  0.2029226282   -7.4691569234   9.3250641809
 C  0.8881525902   -6.5922954353   10.1566696511
 Cl  0.690730558   -6.7281555092   11.8912344426
 C  1.7305517889   -5.6159554871   9.6444433241
 C  1.8772504922   -5.5072826825   8.267828298
 N  1.441916417   -7.4735671231   5.3093396702
 C  1.6102827945   -7.5337167925   3.9889454164
 C  1.7119840306   -8.8989634374   3.4169823144
 C  0.8698955362   -9.8989104308   3.9117112913
 C  0.9386067817   -11.1930423458   3.4193295033
 C  1.8749538376   -11.4887458974   2.4366652111
 Cl  1.9732801266   -13.1223999697   1.8139811335
 C  2.7375256165   -10.5208136374   1.9428174164
 C  2.6491887823   -9.2249551203   2.4346810706
 C  1.6712635508   -6.3617343155   3.2111308765
 C  1.8062840102   -6.4141867871   1.7857150454
 N  1.9052738413   -6.439255576   0.6338157603
 C  0.5117669913   -3.4329707883   2.2156994542
 C  -0.6971544465   -4.1679390403   2.114183389
 C  -1.7221859893   -3.7357518897   1.3125076287
 C  -1.5955861971   -2.5428963086   0.5714682084
 C  -0.4443868195   -1.8032049873   0.6548237999
 C  0.6286891264   -2.2258784351   1.4755138453
 H  2.8007805045   1.3468328067   0.2403323576
 H  3.8930588673   -0.0273976772   0.5580745721
 H  3.1641315034   0.8731790222   1.9217150704
 H  3.7673042303   -1.2874063357   2.4863787262
 H  3.5545130047   -3.3719417314   3.7573052503
 H  -0.1566819506   -8.0409718948   7.2939734928
 H  -0.4493086678   -8.2283869222   9.7415582552
 H  2.2724482618   -4.9512602352   10.3073935915
 H  2.5552476283   -4.7587953651   7.8736259339
 H  0.1473805249   -9.6576651588   4.6831484808
 H  0.2736042862   -11.9618362889   3.7961460816
 H  3.4750376512   -10.7712578575   1.1888693811
 H  3.3416138241   -8.4791726627   2.061848027
 H  -0.8142795126   -5.0820115974   2.6866867252
 H  -2.6388257822   -4.3141542652   1.250549734
 H  -2.412991251   -2.2099602595   -0.0603817457
 H  -0.339940096   -0.8812174602   0.0955329968
