65

 N  1.338307062   -0.4108072357   0.7356057493
 C  2.4590136745   -0.320586546   0.4637539052
 C  3.8553999925   -0.210746129   0.1630525604
 C  4.5084368956   1.034739491   0.2449548596
 C  3.7935244041   2.3162382317   0.4559725041
 C  4.359754842   3.2746174046   1.3013311268
 C  3.7349783215   4.4947033149   1.5095748257
 C  2.5428131719   4.7599634283   0.8475892149
 Cl  1.7503746324   6.3010186561   1.0989791421
 C  1.9692609802   3.8350550231   -0.013435445
 C  2.5982317746   2.6118606787   -0.2033405137
 N  5.8344318887   1.1223401985   0.1653668706
 C  6.5764222181   0.0391502063   -0.0546802592
 C  8.0417708378   0.2620628463   -0.0851708974
 C  8.9371563225   -0.6347621443   0.5020262418
 C  10.3023753909   -0.3820062992   0.4892235231
 C  10.7668427349   0.773974669   -0.1221353859
 Cl  12.4879927387   1.0946993475   -0.1501260145
 C  9.897585201   1.6865441407   -0.7064764612
 C  8.5356248996   1.428804762   -0.675561777
 C  5.9808168529   -1.2186114681   -0.2730468769
 C  6.768875168   -2.3283837568   -0.719978089
 N  7.4026564298   -3.2144551048   -1.1088554662
 C  4.5915056673   -1.3694467048   -0.1335356804
 C  3.9353191337   -2.6849912339   -0.2912982048
 C  4.3635550494   -3.7941738282   0.4454293313
 C  3.7499817395   -5.0261846317   0.3025396208
 C  2.6829963645   -5.1957320205   -0.592397535
 N  2.0613284545   -6.4421974857   -0.7418669093
 C  2.0179557864   -7.3710130545   0.3370411062
 C  1.5995808511   -6.9660363747   1.6066296398
 C  1.5534348093   -7.8823256014   2.6503039107
 C  1.9030279884   -9.2126200815   2.4369086932
 C  2.3089578336   -9.6186436179   1.1693253398
 C  2.3745749774   -8.7040285815   0.1248921438
 C  1.4558936421   -6.813299097   -1.9765022893
 C  2.1492051424   -6.6663220856   -3.1800930224
 C  1.5520742095   -7.0390021598   -4.3782185226
 C  0.2693936007   -7.5794289117   -4.3888635106
 C  -0.417010428   -7.7364624266   -3.1886205876
 C  0.1669251887   -7.3495235039   -1.988215771
 C  2.2549670566   -4.0842725174   -1.3337115752
 C  2.8695869639   -2.8539181862   -1.181300371
 H  5.2940645021   3.0562989355   1.8060761046
 H  4.1700344721   5.2298158504   2.177068487
 H  1.0481962482   4.0650931741   -0.5367812545
 H  2.1604472738   1.9018405488   -0.8959166355
 H  8.5760806528   -1.5261904435   1.0024539337
 H  10.992656913   -1.0746788815   0.9570749501
 H  10.2777500631   2.5856836327   -1.1778942288
 H  7.8448104258   2.1352369107   -1.1217607149
 H  5.1830119126   -3.6945951735   1.1501493931
 H  4.105907891   -5.8669923686   0.885876972
 H  1.3100729589   -5.9333980941   1.7726198475
 H  1.2270296995   -7.5550796862   3.6329358988
 H  1.8583469839   -9.927628797   3.2524900909
 H  2.5879351135   -10.6528583412   0.9910380608
 H  2.7036129683   -9.0199594648   -0.8597722815
 H  3.1559109284   -6.261088774   -3.1738865459
 H  2.101160916   -6.9192432739   -5.3073888459
 H  -0.1911994827   -7.8768762452   -5.325765578
 H  -1.4197352272   -8.1532809649   -3.1841000991
 H  -0.3750206691   -7.4610007143   -1.054670295
 H  1.4304756841   -4.1828709179   -2.0297108368
 H  2.5182993069   -2.0148685216   -1.7734555664
