63

 N  1.1432192361   -0.061320615   -0.71600875
 C  2.2843338883   -0.0385890273   -0.5292216829
 C  3.6980508177   -0.0100991177   -0.2971899698
 C  4.3963789305   1.2119701601   -0.2525820006
 C  3.7448179126   2.5331658497   -0.4389123483
 C  4.1077758084   3.5828036276   0.4096842317
 C  3.5411903684   4.8401680922   0.2670537339
 C  2.6184527455   5.0491291248   -0.750063883
 Cl  1.903080255   6.6360403293   -0.9429313022
 C  2.2565122075   4.0311100948   -1.6202956442
 C  2.8207052033   2.7722777784   -1.4578527634
 N  5.707671475   1.2495076821   -0.0220294128
 C  6.4004159841   0.125413813   0.1504725372
 C  7.8573596985   0.2974797384   0.3713386648
 C  8.2976427879   1.3435573505   1.1867641843
 C  9.6510128539   1.5524461765   1.403950402
 C  10.5680309211   0.7158952895   0.7802027532
 Cl  12.2794831307   0.9762841388   1.0438063381
 C  10.1593032987   -0.3167123685   -0.0516725815
 C  8.8005650117   -0.5239077475   -0.2499441428
 C  5.7650379959   -1.1313739038   0.1417644099
 C  6.494979417   -2.3193315026   0.4731913198
 N  7.0813768109   -3.2727296615   0.7644638869
 C  4.3833350619   -1.2169060809   -0.0867656544
 C  3.6801160127   -2.5218539673   -0.0835200797
 C  2.6199627064   -2.7485985055   0.8163267554
 C  1.9453088105   -3.9554834804   0.8533684704
 C  2.3394267667   -4.9515785907   -0.0405169968
 C  3.3931084948   -4.7402440813   -0.9565897357
 C  4.0686547339   -3.5246827896   -0.9694579194
 C  3.5177486895   -5.953822019   -1.7351704999
 C  4.3705201289   -6.3530649896   -2.7653896632
 C  4.2302354659   -7.6262560062   -3.2950747019
 C  3.2498784238   -8.5001435738   -2.8023856292
 C  2.3908421872   -8.1252805377   -1.7799030494
 C  2.5326002092   -6.8408220646   -1.25627698
 N  1.8227828371   -6.2234333756   -0.2267761104
 C  0.7421437958   -6.7982049896   0.499058654
 C  0.8262827796   -6.9265304504   1.8841091289
 C  -0.2363844309   -7.4793424073   2.5898456128
 C  -1.3712757727   -7.9207431846   1.9164795075
 C  -1.4462136985   -7.7994739391   0.5321680892
 C  -0.3960225086   -7.2305604734   -0.1791404665
 H  4.8341423767   3.4095851597   1.1957675862
 H  3.8159064793   5.6469875327   0.9370178208
 H  1.5489706059   4.2145208727   -2.4207974769
 H  2.5499465569   1.9880501144   -2.1552061845
 H  7.5723143408   1.993722138   1.6629112095
 H  9.9877315544   2.3563579644   2.0485984675
 H  10.8882482107   -0.9488498668   -0.5458405447
 H  8.4853262552   -1.3167365156   -0.9190997428
 H  2.3357794274   -1.9667607683   1.5129130834
 H  1.1378519908   -4.1144940226   1.5585426047
 H  4.8743648721   -3.3536736402   -1.6767058718
 H  5.1328426971   -5.6767815046   -3.1407690754
 H  4.8845945255   -7.9530244634   -4.0970726145
 H  3.1603601811   -9.4949534717   -3.2281968123
 H  1.638434293   -8.8087124119   -1.4027297087
 H  1.7228399307   -6.5995247678   2.4006071037
 H  -0.1700203775   -7.575011612   3.6691182188
 H  -2.1961681914   -8.3589317388   2.4696020367
 H  -2.3305029519   -8.1385672899   0.0016262132
 H  -0.4561802289   -7.1144215036   -1.2563230248
