63

 N  1.5094434606   -0.4902075482   1.2929696527
 C  2.551895882   -0.3459105606   0.8133445368
 C  3.8572325714   -0.1810749591   0.2458018975
 C  4.5179836678   1.0623573674   0.2975994564
 C  3.8767596164   2.3071344485   0.7838421618
 C  4.6293262431   3.191789392   1.5618702883
 C  4.0769953447   4.3759458218   2.0250144001
 C  2.7646770023   4.6816527035   1.6871601736
 Cl  2.0605442797   6.1776550106   2.2628636644
 C  2.0018054353   3.8320532338   0.898576981
 C  2.5624061763   2.6429557002   0.4515188173
 N  5.7933408415   1.1760964343   -0.0664972356
 C  6.4668812947   0.1304898563   -0.5409251111
 C  7.8861844933   0.3846240375   -0.8845295514
 C  8.8935268483   -0.5426495954   -0.6085524582
 C  10.2179446325   -0.2602924633   -0.9155998853
 C  10.5274697908   0.9560377919   -1.5075391755
 Cl  12.1940736824   1.3141788471   -1.9068283177
 C  9.5461868424   1.8994774345   -1.7846410677
 C  8.2293219057   1.6107966221   -1.4616410684
 C  5.8354014578   -1.1154507546   -0.7260408222
 C  6.5004953969   -2.1839563407   -1.4109717572
 N  7.0233542362   -3.0405588503   -1.9857939103
 C  4.5113089156   -1.2936332421   -0.3015355297
 C  3.8300986178   -2.6059341118   -0.4264122556
 C  4.3609312436   -3.739088076   0.1943135713
 C  3.7267067937   -4.9667909279   0.0766242064
 C  2.5485198812   -5.0748245187   -0.6613235263
 N  1.8985805836   -6.3268869855   -0.7804632254
 C  1.5040529818   -7.1456479003   0.2776794814
 C  1.6142815577   -6.9332075338   1.6515352195
 C  1.1117837085   -7.9120366448   2.4969180672
 C  0.5092215553   -9.074717761   1.9959858753
 C  0.3924834759   -9.2745391124   0.628938845
 C  0.889706673   -8.303601394   -0.2415008017
 C  0.9189660192   -8.1815258277   -1.683999864
 C  0.4855393305   -9.0036846151   -2.7250626226
 C  0.6858633674   -8.5926125473   -4.0339799864
 C  1.3199811952   -7.3725513654   -4.3081808294
 C  1.7586946782   -6.5379228418   -3.2902375177
 C  1.5438347653   -6.9518462218   -1.9759840017
 C  2.0117024251   -3.9473012211   -1.2817126401
 C  2.650832342   -2.7219573684   -1.1659980792
 H  5.6542867635   2.9430602678   1.8124702768
 H  4.6598574078   5.052294729   2.6398103944
 H  0.98525258   4.0940672732   0.6283977944
 H  1.9695420935   1.9958441521   -0.1847448425
 H  8.6618520432   -1.4839789962   -0.1234767413
 H  10.9978860502   -0.9781370153   -0.6888443935
 H  9.8057306197   2.8459894689   -2.2449687551
 H  7.4537922899   2.3400496976   -1.6664665217
 H  5.2738908577   -3.66283749   0.775927599
 H  4.1510705008   -5.8454380756   0.5496355094
 H  2.0717760695   -6.0347954146   2.0503049931
 H  1.1867980056   -7.7700955151   3.5708513283
 H  0.128035576   -9.8209167997   2.6860128912
 H  -0.0819929166   -10.170068246   0.2383452686
 H  0.0027543421   -9.9525357476   -2.5099726609
 H  0.3538380649   -9.2205647987   -4.8547651932
 H  1.4748023007   -7.0716586878   -5.3399759209
 H  2.2542784681   -5.6000167098   -3.5142727149
 H  1.089278469   -4.0281435013   -1.8460212084
 H  2.2295592018   -1.8510120029   -1.6574931587
