52

 C  1.8460719825   -0.4176382626   -0.2556713719
 C  1.2079512609   -0.3253422189   -1.6137825011
 C  1.8619191946   0.2969735127   -2.6469289657
 C  1.2885401905   0.3949674333   -3.9309423446
 C  0.052694224   -0.1401677289   -4.1922435734
 C  -0.4953608569   -0.0370740057   -5.5718395726
 C  -0.5443172595   -1.1481360109   -6.4231585792
 C  0.018074461   -2.3858268981   -5.9711096646
 N  0.4933876174   -3.3731177627   -5.6013244454
 C  -1.0898863535   -1.0145476752   -7.7148195093
 C  -1.2542629593   -2.1496320614   -8.6540594357
 C  -1.6964202387   -3.4048875133   -8.2296716014
 C  -1.8693291832   -4.4388669431   -9.1401610627
 C  -1.5913083049   -4.2097473621   -10.4802015346
 Cl  -1.7991593287   -5.5123735253   -11.6315119522
 C  -1.1585275016   -2.9687483321   -10.9302626855
 C  -1.0012833313   -1.941113596   -10.0131180921
 N  -1.4681789004   0.1759673436   -8.1766565223
 C  -1.3877782233   1.2661274212   -7.417373136
 C  -1.8114774494   2.5310475692   -8.0638845352
 C  -2.9036759177   2.5085500408   -8.9362489278
 C  -3.3246375929   3.6639466249   -9.5764688272
 C  -2.6303884122   4.846262335   -9.3526351194
 Cl  -3.1502791606   6.3097557891   -10.1608662508
 C  -1.5300294533   4.892711652   -8.5085526316
 C  -1.1261399561   3.7313541058   -7.8634534878
 C  -0.951420118   1.1847512675   -6.0792886787
 C  -1.0095667435   2.3167238501   -5.2025281196
 N  -1.074954309   3.2213990594   -4.4850621686
 C  -0.6793883909   -0.7879444554   -3.1475637849
 C  -1.9773030983   -1.3250877035   -3.3501004533
 C  -2.6559293483   -1.9361820761   -2.3286125216
 C  -2.0710491923   -2.0392204691   -1.0494459939
 C  -0.8228912326   -1.5218600679   -0.8205881146
 C  -0.0907119471   -0.879408493   -1.852978457
 H  1.2359526471   0.0733336384   0.5103312016
 H  2.8289253786   0.0595730201   -0.2610181171
 H  1.9778041439   -1.4592680345   0.0570361857
 H  2.8460158445   0.7238999841   -2.4792813728
 H  1.8421115559   0.888512961   -4.7237896155
 H  -1.9403612494   -3.5823584749   -7.1884552149
 H  -2.2233629947   -5.4080819639   -8.8082067914
 H  -0.9475666451   -2.8059145059   -11.9811132066
 H  -0.6698967988   -0.9659214469   -10.3512247426
 H  -3.4322152934   1.5774715016   -9.1063392294
 H  -4.1805327544   3.6441744811   -10.2415370292
 H  -0.987950616   5.819455174   -8.359359276
 H  -0.2508801737   3.7686553951   -7.2251876103
 H  -2.4422815936   -1.2431017129   -4.3268460609
 H  -3.6484839968   -2.3397672526   -2.503204023
 H  -2.6144210158   -2.5254801227   -0.2452250973
 H  -0.3839706056   -1.6003874842   0.1675246219
