71

 C  -0.2039251735   -0.6006060351   1.5838813322
 C  0.1873365577   -1.4085757472   0.3749375528
 C  1.5254654203   -1.7100509562   0.1161383234
 C  1.8726847246   -2.4858690734   -0.984949919
 C  0.8970945601   -2.9630743974   -1.8505215677
 C  -0.4460920654   -2.6752172091   -1.5999958606
 N  -1.4627680209   -3.1447766561   -2.4793362374
 C  -1.4900655083   -4.485854178   -2.8910072514
 C  -0.9988060707   -5.5033814428   -2.060959926
 C  -1.0275821557   -6.8258754134   -2.4706539949
 C  -1.5450388005   -7.1793577184   -3.7194253694
 C  -1.574348433   -8.5958690601   -4.1552881517
 C  -2.2827386631   -9.5704334811   -3.4359026549
 C  -2.9537324377   -9.1992602368   -2.225196693
 N  -3.4860843215   -8.8987028057   -1.2434982557
 C  -2.3284337269   -10.8964710788   -3.9080329901
 C  -3.1202952224   -11.9691026906   -3.2579631526
 C  -4.423558812   -11.7579310272   -2.8037351918
 C  -5.1495612032   -12.7938658484   -2.2305488502
 C  -4.5587465939   -14.0433999659   -2.1093413393
 Cl  -5.4643619811   -15.3517074823   -1.3779586045
 C  -3.2673046785   -14.2829480865   -2.5616696689
 C  -2.5579457211   -13.2437443698   -3.1439642042
 N  -1.630671556   -11.2694899093   -4.9786543024
 C  -0.9062942964   -10.3862122247   -5.6623419342
 C  -0.1488056405   -10.9373927407   -6.8123914883
 C  -0.7583487475   -11.9051548305   -7.6160693864
 C  -0.0828946438   -12.4636714888   -8.6903093135
 C  1.2218542806   -12.0608473334   -8.945617622
 Cl  2.0847395965   -12.7654008843   -10.2968222764
 C  1.8588455172   -11.1190728314   -8.1504002885
 C  1.166713642   -10.5574721301   -7.0853573562
 C  -0.8953673182   -9.0236024105   -5.3064508527
 C  -0.1970224357   -8.0616865841   -6.1069974136
 N  0.3577939312   -7.2814149271   -6.7557026551
 C  -2.0346502684   -6.1662838015   -4.5481008723
 C  -2.0094265827   -4.8422615515   -4.1437560493
 C  -2.4578935793   -2.2281624769   -2.9229967974
 C  -3.8110393643   -2.5630108505   -2.8610362293
 C  -4.7638273267   -1.6475387658   -3.291746218
 C  -4.382430151   -0.3974416693   -3.7647850424
 C  -3.0318329723   -0.0459034519   -3.825652123
 C  -2.609697933   1.2937546884   -4.3683647908
 C  -2.0804843179   -0.9737373741   -3.4065052931
 C  -0.788723776   -1.9028870825   -0.4896344696
 H  -0.4252904605   -1.2529687919   2.4371550186
 H  -1.099109977   -0.0017774932   1.3922341084
 H  0.6017884873   0.0730123757   1.8894068743
 H  2.2983117698   -1.3321131602   0.7795435979
 H  2.9172628514   -2.7072754166   -1.1829573338
 H  1.1716084838   -3.5509318478   -2.7200115804
 H  -0.5964879538   -5.2585426023   -1.085126371
 H  -0.6370453254   -7.591595837   -1.8078000341
 H  -4.8992864317   -10.7908054939   -2.9187393717
 H  -6.1652008964   -12.6276469157   -1.8901513939
 H  -2.8222045835   -15.266411694   -2.4626026587
 H  -1.5519401158   -13.4186532145   -3.5083172818
 H  -1.7744086402   -12.2160176801   -7.4007601412
 H  -0.564304032   -13.2036360086   -9.3194581436
 H  2.8839425685   -10.8292396548   -8.3508724007
 H  1.6779752685   -9.8412362975   -6.4525538798
 H  -2.4461870999   -6.4122974711   -5.5219175268
 H  -2.3915371257   -4.0765799732   -4.8084514766
 H  -4.1125412748   -3.5304875939   -2.473723602
 H  -5.8167214976   -1.9085338831   -3.2399104659
 H  -5.1370193877   0.3144486578   -4.0877751692
 H  -2.6045363707   1.289484974   -5.4649128945
 H  -3.2966507976   2.0846802261   -4.0522485949
 H  -1.6026957573   1.5607376913   -4.0360943391
 H  -1.0258256603   -0.7198822208   -3.4547662568
 H  -1.8350737721   -1.6839350843   -0.2985232334
