55

 C  0.9561753195   -0.1682287833   0.8493404319
 C  0.80719299   1.0281955013   1.750594291
 C  0.2326630902   0.8972502464   3.0173033715
 C  0.072600539   2.001136658   3.8462644262
 C  0.4856699018   3.258141016   3.4250436312
 C  1.0823322548   3.4074400029   2.1714415157
 C  1.5022227827   4.759683016   1.734202894
 N  0.6842860354   5.7583875969   2.0637125293
 C  0.9451963214   7.0130962182   1.701597803
 C  -0.0249433287   8.0350554584   2.1616402922
 C  0.3863424889   9.2869714996   2.6219613682
 C  -0.5612230963   10.1977566404   3.0756641622
 C  -1.9106047531   9.8708443747   3.0654454228
 C  -2.3429674019   8.6205186537   2.6125594822
 C  -3.808300216   8.2770265053   2.5910563463
 C  -1.3861412501   7.7108295296   2.1748565124
 C  2.0707541057   7.3147601659   0.9065032669
 C  2.2788587061   8.6266079225   0.3690717503
 N  2.4444265606   9.6754503109   -0.0895200682
 C  2.9854277563   6.3051024148   0.587805574
 C  4.2297441072   6.6076702079   -0.1722062531
 C  5.2456496379   7.2761723966   0.4684832367
 C  6.4549794097   7.5670318661   -0.1984325952
 C  6.625848386   7.1901644474   -1.5021144437
 C  5.5963180339   6.5109090225   -2.2023228103
 C  5.7601058378   6.1278084621   -3.5584654883
 C  4.7584309063   5.4817373726   -4.2315828838
 C  3.5400031261   5.1925174004   -3.5768192015
 C  3.3503129893   5.547686065   -2.2670303146
 C  4.3732987664   6.2105417058   -1.538772076
 C  2.701355668   5.010002473   1.0371840521
 C  3.6734785484   3.9798840818   0.8220803525
 N  4.4792223001   3.1665851715   0.6576833955
 C  1.231143644   2.2907064392   1.3428266296
 H  -0.0156727913   -0.6270402888   0.6372541991
 H  1.5799655477   -0.9378978842   1.3168669372
 H  1.4161604093   0.1057675746   -0.1036523534
 H  -0.0982979761   -0.0819681965   3.3532466702
 H  -0.3784696154   1.8820232032   4.8266110718
 H  0.3584976221   4.1248645479   4.0641992544
 H  1.4388947014   9.5442593995   2.660485843
 H  -0.2403854861   11.1659878983   3.4471690366
 H  -2.6427386484   10.5918129942   3.4195953005
 H  -4.2888562287   8.5317821889   3.5411223587
 H  -4.3309248071   8.835140418   1.8056019051
 H  -3.9650807022   7.2115190257   2.403164051
 H  -1.6958870966   6.7301072338   1.828509752
 H  5.1222986631   7.5738052719   1.5051977307
 H  7.243734408   8.0887745786   0.3336608883
 H  7.5528825589   7.4077557256   -2.0248134059
 H  6.6994696309   6.3613603752   -4.051639857
 H  4.8933523286   5.1931955196   -5.2693507883
 H  2.7468704921   4.686495207   -4.1185712799
 H  2.405094803   5.325746055   -1.7829411537
 H  1.6549020191   2.4034570921   0.3500472364
