61

 C  0.7416788087   0.0964467095   -1.2448863305
 C  0.0278738606   1.4118656316   -1.4070339264
 C  -1.2962317395   1.4640570044   -1.8430499713
 C  -1.9371617265   2.6839631307   -2.0372013015
 C  -1.2657653659   3.8727851182   -1.7940447433
 C  0.0539499811   3.8425830149   -1.3328409903
 C  0.7554496878   5.1254233706   -1.0899828344
 N  0.5063790031   6.0981830723   -1.9651489098
 C  1.0989652544   7.287174389   -1.8670029214
 C  0.7095314711   8.2892502245   -2.8871785929
 C  0.4913328287   7.864033012   -4.2002156676
 C  0.115811466   8.7840908016   -5.1689287516
 C  -0.0627163728   10.1216502755   -4.8333545422
 C  0.12649512   10.5632801901   -3.5224635796
 C  -0.1140140006   12.0021185736   -3.1510328171
 C  0.5188563672   9.6346296385   -2.560206249
 C  2.0524205116   7.5347857578   -0.8579697345
 C  2.8107512668   8.7496258271   -0.8165535064
 N  3.445368878   9.715811093   -0.7784716571
 C  2.3024665873   6.5597657587   0.1133856144
 C  3.2643878622   6.807285527   1.2274113794
 C  2.80485111   7.4021162293   2.4163642197
 C  1.440258895   7.7854673697   2.6192791088
 C  1.0397015343   8.3563383665   3.7896923052
 C  1.9670054754   8.5881669061   4.8453356158
 C  3.2730096851   8.2377859445   4.6932928541
 C  3.7362264217   7.635459231   3.4822719897
 C  5.0711694325   7.272325335   3.3202939845
 C  5.5308168277   6.6838861163   2.1444378843
 C  6.9031582496   6.3155454845   1.9865009804
 C  7.3456142639   5.742870411   0.8341970663
 C  6.4375553618   5.5022577179   -0.236111685
 C  5.1216254644   5.8375430673   -0.1260284283
 C  4.6132561603   6.4413267959   1.0686476617
 C  1.6185652168   5.3445360953   0.0033766732
 C  1.7905793312   4.3680570024   1.0375557155
 N  1.9271883195   3.5990200622   1.8905692525
 C  0.6893238688   2.6126008457   -1.1497215177
 H  0.0357554917   -0.7166755368   -1.0540233801
 H  1.458755459   0.130892941   -0.4195024868
 H  1.30083441   -0.160723313   -2.1524242086
 H  -1.8300003169   0.5376744082   -2.0370331094
 H  -2.9675721782   2.7057363845   -2.3784331853
 H  -1.7581384481   4.8269247264   -1.9455264174
 H  0.6296166786   6.8191142628   -4.4547100839
 H  -0.0372194084   8.457430731   -6.1929105929
 H  -0.3581312215   10.8348251215   -5.5983159535
 H  0.2452129142   12.6783417337   -3.9326790555
 H  -1.1842757811   12.1997523859   -3.0181465098
 H  0.3882588347   12.2615257635   -2.2151155723
 H  0.646644226   9.969015986   -1.5357612469
 H  0.717057746   7.6178982092   1.8285920957
 H  0.0001436033   8.6395046914   3.9232512805
 H  1.6235102804   9.0447216015   5.7682654333
 H  3.9931669671   8.4073051019   5.4886806015
 H  5.7715718511   7.4526090368   4.1315952556
 H  7.5826033168   6.5062857247   2.8123203312
 H  8.3893426819   5.4665412227   0.7223795646
 H  6.802715451   5.0454741116   -1.1508291131
 H  4.4476271128   5.6454744512   -0.9537502121
 H  1.725914962   2.5778091535   -0.8299370828
