51

 C  1.080212029   0.038513135   0.256002182
 C  -0.109176727   0.0195902765   0.0644850669
 C  -1.5239023854   -0.0035842444   -0.1634197477
 C  -2.0511742669   -0.6871142461   -1.2652464723
 C  -3.4198545791   -0.7136587011   -1.4816622637
 C  -4.2846589369   -0.0501380711   -0.6083068141
 C  -5.7512893055   -0.068626554   -0.8430369035
 C  -6.4766672108   -1.2675297672   -0.8554016118
 C  -5.7866105574   -2.5054217101   -0.6428396647
 N  -5.2179153006   -3.498889414   -0.4779985325
 C  -7.8621222785   -1.2443417013   -1.1136099531
 C  -8.7016449949   -2.4673179974   -1.1482681291
 C  -8.6032388672   -3.4561931017   -0.1694699848
 C  -9.4387787359   -4.5667631246   -0.2284785011
 C  -10.3600536313   -4.6981666057   -1.2582488791
 C  -10.4779981032   -3.714861981   -2.2458399603
 C  -11.4787681136   -3.8646667717   -3.3601777557
 C  -9.6486405304   -2.6010625565   -2.1695531022
 N  -8.4978743209   -0.0984700337   -1.3529781944
 C  -7.8482597767   1.0645493158   -1.3266394332
 C  -8.6721496991   2.2703099036   -1.5846793053
 C  -9.6502818454   2.2192243527   -2.5800375182
 C  -10.4415033969   3.3331153882   -2.8263889308
 C  -10.2782022258   4.4890369658   -2.0718559767
 C  -9.3219538209   4.5531856981   -1.0559558225
 C  -9.1763173872   5.7937704069   -0.2158741342
 C  -8.5212594557   3.4359614267   -0.828072452
 C  -6.4605539578   1.1153228552   -1.0844536197
 C  -5.7392060603   2.3494999657   -1.1865832869
 N  -5.1436531159   3.3355263211   -1.2898392797
 C  -3.759576897   0.6387381196   0.4876534216
 C  -2.3923415897   0.6576486319   0.7129457932
 H  2.1367736884   0.054337469   0.4256277055
 H  -1.3834094295   -1.1961631098   -1.9516406102
 H  -3.8162496413   -1.2407112637   -2.3432642117
 H  -7.9056972967   -3.3526430693   0.6542667614
 H  -9.3717341915   -5.330247556   0.5403558123
 H  -11.0045514374   -5.5725536317   -1.2969945855
 H  -11.2519267993   -4.7401838131   -3.9787302681
 H  -12.4911051477   -4.0032311583   -2.9657090499
 H  -11.4851041611   -2.9857072466   -4.0100970874
 H  -9.7281681852   -1.8213698017   -2.9205715307
 H  -9.7766905407   1.3132828411   -3.1625739065
 H  -11.1910016274   3.2993354153   -3.6111074974
 H  -10.9050447771   5.3547272615   -2.2689565705
 H  -9.1292896458   6.6912980211   -0.8409323946
 H  -10.0318726302   5.9148969648   0.4585197075
 H  -8.2715370447   5.756663676   0.3965848341
 H  -7.7900323821   3.4726636676   -0.0269565768
 H  -4.4245348376   1.1516633466   1.1748836999
 H  -1.9907178681   1.1861558059   1.5706255344
