59

 C  2.4386427656   0.660452339   1.3563143544
 O  1.319054238   -0.2069198866   1.2337641993
 C  1.4261998781   -1.4599689902   1.7187214319
 C  2.5489221704   -1.9644253792   2.3296345817
 C  2.5513791161   -3.2939201675   2.7954116779
 C  1.4635706602   -4.1189824302   2.6503747767
 C  1.5573381902   -5.5203979203   3.1348171754
 C  1.6529698443   -5.8080102317   4.5021756358
 C  1.5092869788   -4.7387268085   5.445370497
 N  1.3668381248   -3.8751013536   6.2016146144
 C  1.8295886061   -7.1408989912   4.9284775963
 C  2.02848834   -7.5211799469   6.3472965575
 C  2.8583307199   -6.786954129   7.1956618303
 C  3.0386112022   -7.2026812296   8.5103380198
 C  2.3925029279   -8.3371422565   8.9823990806
 C  1.5609106686   -9.0897927649   8.1470666104
 C  0.8571634436   -10.3140886947   8.6681523901
 C  1.3987455224   -8.6740159039   6.8297802712
 N  1.7978238666   -8.1458617749   4.0556191993
 C  1.6553219958   -7.9203825605   2.7499443681
 C  1.606770639   -9.1252668993   1.8881445845
 C  2.4356113436   -10.207175831   2.1932863741
 C  2.3963389204   -11.3494749702   1.405159617
 C  1.5221399711   -11.4268833365   0.3273487898
 C  0.6676332405   -10.3657972731   0.0190925776
 C  -0.3038773921   -10.471231877   -1.1258925535
 C  0.7250711561   -9.2183048061   0.8069158648
 C  1.5895697247   -6.6053774792   2.2477328071
 C  1.6252364698   -6.3411025056   0.8402313546
 N  1.6773224643   -6.1096725911   -0.2918580603
 C  0.2722017795   -3.6142780028   2.0337330506
 C  -0.9095417262   -4.3862271775   1.8926159587
 C  -2.0310004223   -3.8625327248   1.302345203
 C  -2.0342920522   -2.5361272517   0.8246051789
 C  -0.9132826645   -1.7582863106   0.9564596432
 C  0.2571857622   -2.2736143463   1.5632042463
 H  2.1347053845   1.6060856994   0.9068120085
 H  3.3066718587   0.2636590288   0.8195487414
 H  2.6999465435   0.8233899786   2.4070848534
 H  3.4388302976   -1.3619496546   2.457511855
 H  3.4527113085   -3.674530104   3.2661947342
 H  3.3883697502   -5.9138677133   6.8313980058
 H  3.6944314019   -6.6389547066   9.1665410259
 H  2.5369651576   -8.6505711271   10.0130770666
 H  1.5626149425   -11.0039882314   9.1430578003
 H  0.1102342908   -10.0466424719   9.4242089185
 H  0.3443094709   -10.8501800576   7.8653127538
 H  0.7655435728   -9.2467187898   6.1598170043
 H  3.1122549966   -10.1413912296   3.0380491599
 H  3.0519170235   -12.1844752073   1.6324742125
 H  1.4963742829   -12.3260149858   -0.282690928
 H  0.1952247233   -10.8170852635   -2.0369011103
 H  -1.1001644064   -11.1902686235   -0.9017933959
 H  -0.7741808402   -9.5078226651   -1.3397161859
 H  0.0472496238   -8.3998740633   0.5863885948
 H  -0.9288868212   -5.4043080375   2.2663984763
 H  -2.9240445987   -4.4724101049   1.2064854914
 H  -2.9270800981   -2.1314552694   0.3583091833
 H  -0.9077343384   -0.7347639365   0.6013422298
