71

 C  2.2896349219   0.8404516152   3.0264076144
 C  1.4788474749   1.8276361887   2.2301285323
 C  0.0912255406   1.6986132936   2.13760141
 C  -0.6655344197   2.6247922907   1.4297359378
 C  -0.0484009475   3.6971123721   0.7990934047
 C  1.3400062103   3.8312640808   0.8593377187
 C  1.9745356685   4.9949878278   0.190781916
 N  1.3595954808   6.1642148368   0.364574135
 C  1.8492752812   7.2800238162   -0.1745377766
 C  1.0908015253   8.5228344849   0.1099904912
 C  1.7335391061   9.7140510929   0.4492882822
 C  0.9775452858   10.8436434503   0.7430816545
 C  -0.4089071467   10.7930964978   0.6919340192
 C  -1.0721571223   9.6081674442   0.3581351988
 C  -2.5752832251   9.5636165387   0.2915087886
 C  -0.3072094817   8.4796333743   0.0818392431
 C  3.0064470866   7.2523137963   -0.9780196488
 C  3.4442090052   8.4276461097   -1.6713243994
 N  3.7873326646   9.366501478   -2.2533850444
 C  3.6795811788   6.0411872064   -1.1976259489
 C  4.8874602774   5.9767459774   -2.0530200326
 C  6.0184067628   6.7376013388   -1.7440140129
 C  7.150318831   6.6863194487   -2.5396555331
 C  7.1863337316   5.8711472035   -3.6795212799
 N  8.3316440243   5.818895664   -4.4898226415
 C  9.6267713591   5.9929152312   -3.9264440462
 C  10.0001339737   5.2916877271   -2.7773380135
 C  11.2681702348   5.4642093795   -2.2359806023
 C  12.1838260695   6.3195482583   -2.8421620388
 C  11.8161597996   7.0096298117   -3.9932950575
 C  10.5435072955   6.8561173785   -4.5302714256
 C  8.2210804804   5.598382429   -5.8910120668
 C  7.2958210905   6.3170384017   -6.6520862976
 C  7.1987729777   6.0987684707   -8.0208896436
 C  8.0333769094   5.1794602824   -8.6499640344
 C  8.9629801658   4.4716730081   -7.8940924482
 C  9.0534390791   4.6711307841   -6.5216856495
 C  6.0510017332   5.1099177467   -3.9905127365
 C  4.9235041667   5.1627135583   -3.1884808025
 C  3.1446542659   4.8961264598   -0.5880884999
 C  3.7852097757   3.6310988293   -0.7942716604
 N  4.3058365485   2.6133156408   -0.9702970163
 C  2.0901373259   2.8976563089   1.5800771857
 H  2.0731630248   -0.1878743722   2.7185118582
 H  2.0586790219   0.9119032506   4.0952944863
 H  3.3618165793   1.0139326324   2.9026781228
 H  -0.4004414621   0.8649528041   2.6321551825
 H  -1.743658381   2.5114069833   1.3698009189
 H  -0.6354969093   4.4255098795   0.2502663085
 H  2.8148473215   9.7589639199   0.5181035486
 H  1.4768537223   11.7664312919   1.0216592911
 H  -0.9899931225   11.6827021319   0.9203610625
 H  -3.0246893628   10.0170410707   1.1808744662
 H  -2.9467626025   10.120260835   -0.5766299641
 H  -2.9407465384   8.5364653909   0.2099379822
 H  -0.8003767056   7.5459701233   -0.1694197055
 H  6.0182777088   7.3768397849   -0.8665318593
 H  8.0120347603   7.2893948113   -2.2785930607
 H  9.2949944667   4.6110474856   -2.3115391706
 H  11.5453321786   4.9134711016   -1.3420837819
 H  13.1763414568   6.446136961   -2.4211609124
 H  12.5196044581   7.6833186865   -4.4734005065
 H  10.2554792765   7.4059746109   -5.4202933662
 H  6.6550400688   7.0470627048   -6.1684975307
 H  6.4747319368   6.6637675991   -8.6003258123
 H  7.9604482366   5.0171833271   -9.7208073313
 H  9.6171671865   3.7484793048   -8.3718423875
 H  9.7703301395   4.1077552311   -5.9333825739
 H  6.0528402414   4.4678553325   -4.8635281612
 H  4.0575936325   4.5656369612   -3.4564250746
 H  3.1656887011   3.0149230225   1.6647707965
