69

 C  -1.9744072752   -0.0024243205   4.5619969536
 C  -1.1401648816   0.7473152769   3.5579366242
 C  -0.6850011493   0.1308297208   2.3929673854
 C  0.047911103   0.842788696   1.4476170155
 C  0.3403347245   2.1824448249   1.6542701729
 C  -0.0845893791   2.8126523057   2.8279091591
 C  0.2332315761   4.2502865927   3.0195633305
 N  0.0449077792   5.0279401108   1.9543364403
 C  0.28593691   6.3372325576   2.0135681262
 C  0.0177313854   7.0992595918   0.7694429817
 C  0.3839952765   6.5413312247   -0.4568106795
 C  0.128855349   7.2340725032   -1.6330342075
 C  -0.5083523164   8.4685378527   -1.5946185589
 C  -0.9037061243   9.0340839853   -0.3800391136
 C  -1.6173023541   10.3591322989   -0.3477563805
 C  -0.6290281571   8.3385295572   0.7951324263
 C  0.7851521547   6.9321308359   3.189273262
 C  1.1789832935   8.3100357291   3.201811434
 N  1.5235226729   9.4142140786   3.2093412305
 C  1.007185225   6.1495410435   4.3323020681
 C  1.5500163172   6.7431167298   5.5781585788
 C  0.8541970152   7.79164148   6.2116977365
 C  1.3205562318   8.3726284078   7.377200483
 C  2.5189969895   7.8961286014   7.9094707806
 C  3.2387704852   6.8566440691   7.2810187215
 C  2.7462903408   6.2753815982   6.1172571497
 C  4.4288261222   6.63532982   8.0742499532
 C  5.5025572601   5.7495227626   7.9719065677
 C  6.4973869049   5.7890859648   8.9362952022
 C  6.4250536418   6.701616428   9.9991115594
 C  5.3682079871   7.5916507448   10.1212131123
 C  4.3745494655   7.5517801534   9.1438330187
 N  3.2106576913   8.3122366255   9.0357838949
 C  2.8063811337   9.3452141163   9.9269903071
 C  3.6358892063   10.4455933849   10.1352111238
 C  3.2414070909   11.4482262128   11.0136862555
 C  2.0164307363   11.3647691174   11.6687305766
 C  1.1877273575   10.2684495856   11.4504662517
 C  1.5830941142   9.2522081292   10.5880483201
 C  0.7140130584   4.7808892629   4.2332587412
 C  0.9366176727   3.9332854287   5.3669779925
 N  1.1208102227   3.2516056946   6.2831272776
 C  -0.8256741434   2.0912246377   3.7647066926
 H  -1.7114270601   0.2770228562   5.5866828467
 H  -1.8457752166   -1.0831846884   4.4566200427
 H  -3.0403430741   0.2174084605   4.4288109042
 H  -0.9109246389   -0.91805842   2.2215107214
 H  0.3929386248   0.3477453329   0.5450551125
 H  0.9083630843   2.7429013755   0.9196551512
 H  0.8760578709   5.5751807316   -0.4816733959
 H  0.42718678   6.8076157862   -2.5858769057
 H  -0.7086615032   9.0014608174   -2.520478423
 H  -1.0223266675   11.1389204712   -0.8352817247
 H  -2.5741969291   10.3055125516   -0.8786540869
 H  -1.8181846155   10.6785369576   0.6781837865
 H  -0.9527882687   8.7618233337   1.7406938756
 H  -0.0810266419   8.1418437463   5.7868050285
 H  0.7666840671   9.1721713721   7.8553192261
 H  3.3002006328   5.4817584077   5.6257287071
 H  5.5528756419   5.039764843   7.1514661453
 H  7.3400955476   5.1080125292   8.8716857564
 H  7.2126534194   6.7125086331   10.7464820195
 H  5.3188723399   8.2910880674   10.9481390874
 H  4.5804918209   10.5140175992   9.6056319143
 H  3.8905646552   12.3028334313   11.1770394077
 H  1.7083339779   12.1529198515   12.3486591164
 H  0.2329040621   10.1952981154   11.9617004155
 H  0.9511986294   8.3844207557   10.4292277861
 H  -1.1925152533   2.5800436611   4.6616475178
