79

 C  5.8165495637   7.4485140863   1.0891499251
 O  4.6710860945   7.821379031   1.8384009712
 C  4.0627530594   6.8688911648   2.5877185581
 C  2.9313153287   7.2789816271   3.3001270898
 C  2.2453974467   6.3826333374   4.100463188
 C  2.6617918005   5.0517358455   4.1955876567
 N  1.9263607686   4.1254792821   4.995139112
 C  0.5308883316   3.9892546253   4.7263498501
 C  0.0906117235   3.6822965847   3.4357673614
 C  -1.2613303466   3.5814183482   3.1588513101
 C  -2.2067504502   3.7683229379   4.1722699141
 O  -3.5057815058   3.639988664   3.8051662105
 C  -4.5005691497   3.8315406941   4.7982389488
 C  -1.7762733669   4.0684894706   5.4646653171
 C  -0.4145321987   4.1883378357   5.7280125735
 C  2.5450577722   3.3851658259   6.0006085916
 C  3.7581394577   3.8072879571   6.5713190913
 C  4.3637758926   3.0725251535   7.5752063574
 C  3.7965032653   1.8844535279   8.0463504526
 C  4.4451413749   1.0951631698   9.1163125368
 C  4.7624313103   1.6576981952   10.363391551
 C  4.444289782   3.0321618261   10.6138048786
 N  4.1882871912   4.1430119414   10.8100612593
 C  5.407226654   0.8794773343   11.3447771019
 C  5.7843033864   1.4063160139   12.6806894888
 C  4.8996252848   2.1583101049   13.4540200528
 C  5.2903977734   2.5962592747   14.7149253987
 C  6.5558079301   2.297093088   15.2013516017
 C  7.4554149111   1.5412828031   14.4433957347
 C  8.8317755823   1.2320441573   14.9684497892
 C  7.0486970245   1.0934726601   13.1905900815
 N  5.7241935767   -0.3945086085   11.1170845909
 C  5.4169881999   -0.9758750449   9.9580345674
 C  5.7973416738   -2.4041086784   9.830628258
 C  4.9377421943   -3.3453435141   9.2632431373
 C  5.3254059083   -4.679379916   9.1977156824
 C  6.5633563794   -5.0751756394   9.685427011
 C  7.4374298693   -4.148205223   10.2621787939
 C  8.7811655678   -4.5834612657   10.7825153993
 C  7.0338806977   -2.8192806546   10.3367467392
 C  4.7887950108   -0.2528170739   8.9249721773
 C  4.5994961869   -0.8440375649   7.6334535915
 N  4.4701678818   -1.3080189747   6.5817146168
 C  2.5938559072   1.4587790624   7.4733263786
 C  1.9752554943   2.1916914932   6.4764898279
 C  3.7803169803   4.6454259798   3.4740660228
 C  4.4897734208   5.5442585361   2.6822722721
 H  6.1417805209   8.3491879731   0.5667634667
 H  5.5798074921   6.6709387104   0.3541163698
 H  6.6253026753   7.0976233328   1.7400452056
 H  2.6097679639   8.31236714   3.2202725375
 H  1.3731661568   6.7117400215   4.6564655251
 H  0.8175838267   3.5269400804   2.644825267
 H  -1.6079498018   3.3465713978   2.1576809148
 H  -4.4032229249   3.1022058196   5.6103183158
 H  -4.4623094621   4.8444332587   5.2147968677
 H  -5.4586334234   3.6853001195   4.2976410125
 H  -2.4853197519   4.2252141443   6.2682725005
 H  -0.0863484023   4.4369779198   6.732417013
 H  4.2266588409   4.7224896584   6.2306307097
 H  5.3022712465   3.4269120316   7.9899135613
 H  3.900234233   2.3773220914   13.0949568816
 H  4.5967868637   3.1685991706   15.3231168447
 H  6.851709263   2.6473829327   16.1867630429
 H  9.4680417024   2.1245817808   14.9521540066
 H  8.7917520201   0.8839956007   16.0055543931
 H  9.3232086319   0.46216475   14.3675830037
 H  7.7265596167   0.4951881495   12.589729737
 H  3.9587015326   -3.0517943224   8.9009196005
 H  4.6512634809   -5.4140524712   8.7684256027
 H  6.857951573   -6.1196843433   9.6253403081
 H  8.6818139065   -5.415669126   11.4873648477
 H  9.4262314089   -4.9283811114   9.9665005191
 H  9.2950529021   -3.7647389629   11.2930286796
 H  7.691765377   -2.0834856307   10.7881688879
 H  2.1231170138   0.5435426684   7.8190479163
 H  1.0431458811   1.8327001152   6.0575901451
 H  4.1083065407   3.6122104189   3.5314809657
 H  5.3584064543   5.1960272002   2.1370343298
