69

 C  2.5048391397   -0.3263151354   2.029117171
 C  1.1293938749   -0.9153750739   2.1942749894
 C  0.7275179984   -2.0106047481   1.4259784831
 C  -0.5298706067   -2.5779985712   1.5948558381
 C  -1.4111014489   -2.0590571281   2.5340856835
 C  -1.0382131614   -0.9495927571   3.2957174076
 C  -1.9897382891   -0.4231602357   4.3035354259
 N  -2.6620006551   -1.340072325   4.9969821681
 C  -3.5215551164   -0.9876429805   5.9511836284
 C  -4.2307155931   -2.1038481155   6.6215522206
 C  -3.5220246466   -3.2705932733   6.9156346775
 C  -4.169805714   -4.3341994541   7.5297642844
 C  -5.5235021496   -4.248954092   7.8325978007
 C  -6.2564412171   -3.1002062177   7.5251550696
 C  -7.7296587217   -3.0273442617   7.8258587736
 C  -5.5940418126   -2.0328249118   6.9232172456
 C  -3.7068930161   0.3673518846   6.2938386762
 C  -4.5391909098   0.744450486   7.3975628911
 N  -5.1967308803   1.0627285722   8.2942698908
 C  -3.0612352865   1.3661847934   5.5529879351
 C  -3.2737685703   2.8070906383   5.8490352423
 C  -2.8688461528   3.3425302973   7.0731702012
 C  -3.0538060095   4.6901638065   7.3451139702
 C  -3.6728075619   5.5127593139   6.4049078828
 N  -3.8752838031   6.885875994   6.6869565848
 C  -3.4577138439   7.9527273472   5.8913432853
 C  -2.7438177181   7.9393812659   4.693228472
 C  -2.4337666399   9.161650104   4.1143158506
 C  -2.8174183895   10.3726206407   4.7078322009
 C  -3.5178295094   10.379448002   5.9043367697
 C  -3.840462415   9.1623762007   6.5064737942
 C  -4.5276602971   8.8095209435   7.7310944599
 C  -5.1394382305   9.5584462196   8.737456273
 C  -5.7414558462   8.8963231854   9.7964240875
 C  -5.7409669693   7.495354578   9.8529054008
 C  -5.1385332107   6.7294020335   8.8651809702
 C  -4.5254574891   7.4016142913   7.8080244458
 C  -4.0920169166   4.9805480936   5.1863702133
 C  -3.880308545   3.6386432293   4.9057454935
 C  -2.2072308961   0.9526313218   4.5219450408
 C  -1.5763676732   1.9414678287   3.6989366991
 N  -1.0850183552   2.7501148272   3.03379806
 C  0.2324264876   -0.3925114475   3.1229867581
 H  2.6280546445   0.5741974891   2.63645314
 H  2.6975473728   -0.0608642155   0.9842699137
 H  3.2789685237   -1.0421945926   2.3274473478
 H  1.4125193671   -2.4260879033   0.6914766794
 H  -0.8251377745   -3.43099948   0.9916258072
 H  -2.3914515384   -2.5005945566   2.6751310232
 H  -2.4673497774   -3.3326945044   6.6712160757
 H  -3.615685654   -5.2356537319   7.7726875043
 H  -6.0234292954   -5.0880486119   8.3093948564
 H  -8.2905710431   -3.7546510055   7.2281961261
 H  -7.9292522966   -3.2537049987   8.878563327
 H  -8.1316418416   -2.033974777   7.6100160958
 H  -6.1626984632   -1.1466405094   6.660727893
 H  -2.3830033438   2.7097129161   7.8088073317
 H  -2.7083671212   5.1077756592   8.284407809
 H  -2.4363149602   7.0097979945   4.2276751631
 H  -1.8794664869   9.1769202714   3.1807156022
 H  -2.5593418334   11.310884286   4.2268646982
 H  -3.8088523579   11.3161847179   6.3707233997
 H  -5.145751308   10.6433765149   8.6867390549
 H  -6.2210986674   9.4646172963   10.5871554911
 H  -6.2238734697   6.9946915792   10.6867094487
 H  -5.1500714549   5.6465300198   8.9169398414
 H  -4.5926266416   5.6149407813   4.4632263268
 H  -4.2127497767   3.2313117705   3.9564154714
 H  0.5470719646   0.4434024209   3.7392921555
