58

 C  2.0765696249   -1.2683412948   2.5872034116
 C  1.0299480722   -1.9887901374   1.7798698144
 C  1.3770920578   -2.6701966612   0.6110544315
 C  0.420264419   -3.3608466831   -0.123119194
 C  -0.9031759546   -3.3819483   0.2967014945
 C  -1.2757024887   -2.6876457964   1.4493612766
 C  -2.692651458   -2.7331651892   1.8859102092
 N  -3.2902142054   -3.9212164433   1.796524416
 C  -4.5556427839   -4.0857986661   2.1799078451
 C  -5.0957570068   -5.461166841   2.0548241406
 C  -4.7689389768   -6.2149011809   0.9250133699
 C  -5.2555243348   -7.5082777001   0.7955868951
 C  -6.0477527628   -8.062392498   1.7950473089
 C  -6.3662992863   -7.3347854988   2.9431905098
 C  -7.1848094152   -7.9523564042   4.0452592186
 C  -5.8869127659   -6.0309250288   3.0557786446
 C  -5.3143484138   -2.9975171027   2.6571734387
 C  -6.7036451618   -3.1350083876   2.9812515765
 N  -7.8297349966   -3.2268411738   3.2284353225
 C  -4.7306464479   -1.7294450858   2.7482659122
 C  -5.5072236385   -0.5607371103   3.2488720296
 C  -5.6901668877   -0.416894109   4.600295732
 C  -6.4071614788   0.6808781107   5.1192524662
 C  -6.9502022544   1.6373247502   4.2992310089
 C  -7.7080621646   2.7981328097   4.8813168643
 C  -6.7841618994   1.5066917434   2.8829705958
 C  -7.3306574384   2.4574087642   1.9817221091
 C  -7.1763106711   2.323794484   0.6265783118
 C  -6.4661759518   1.2249107664   0.0998431312
 C  -5.9237218395   0.2881129621   0.9397206819
 C  -6.0606766188   0.4018574739   2.3476594555
 C  -3.3924438282   -1.6046162301   2.357686861
 C  -2.7878861601   -0.3059482228   2.3954146471
 N  -2.323439488   0.7529046923   2.4212123369
 C  -0.3032144746   -2.0028588256   2.1839770884
 H  1.6300340624   -0.724087968   3.4235068572
 H  2.6259855592   -0.5502223946   1.9692366354
 H  2.8121193504   -1.9701652553   2.9959375737
 H  2.4114519879   -2.6631891075   0.2773713921
 H  0.7075124451   -3.8879100871   -1.027776509
 H  -1.6526224053   -3.9237375516   -0.2698327809
 H  -4.148193967   -5.778972077   0.1499389422
 H  -5.0162485734   -8.0885772209   -0.0902868107
 H  -6.4222382604   -9.0768141945   1.6861723325
 H  -7.998975017   -8.5612235451   3.6404976922
 H  -6.5689125389   -8.6093758298   4.6707017897
 H  -7.6184290893   -7.1881746912   4.6960068405
 H  -6.1149872391   -5.4668391289   3.9545150313
 H  -5.272449063   -1.149995711   5.2836146979
 H  -6.5269587234   0.7658992669   6.1950615371
 H  -7.2510266825   3.7553184168   4.6073295574
 H  -8.7435854589   2.8226059305   4.5245424644
 H  -7.7288016856   2.7342993282   5.9719063421
 H  -7.8817727572   3.3032596546   2.3767389873
 H  -7.6028494561   3.0624202421   -0.0450556231
 H  -6.3512089134   1.1207061327   -0.9746206593
 H  -5.3847686595   -0.5562427471   0.523038723
 H  -0.5750578355   -1.494487448   3.1033516248
