64

 C  0.9168270223   -0.0877034986   0.6116117141
 C  0.6097441858   1.0308238313   1.5711308561
 C  -0.0005998493   0.7669626417   2.799693885
 C  -0.3163995965   1.7985129441   3.6759487662
 C  -0.0256566056   3.1143940972   3.3412956425
 C  0.6045558958   3.3983179596   2.1279179027
 C  0.8893719718   4.8111510091   1.7799671001
 N  -0.0506625427   5.6908038614   2.1221441093
 C  0.0851177046   6.9834053141   1.8305567131
 C  -1.0101733685   7.8673037449   2.2970699404
 C  -2.32691683   7.4072435176   2.2313285419
 C  -3.3626287482   8.2141356999   2.6837719002
 C  -3.0914355013   9.4680158429   3.2181831785
 C  -1.7797254716   9.9396367206   3.3115835027
 C  -1.4919491852   11.2918363029   3.9073684863
 C  -0.7494234829   9.1280306396   2.8429593082
 C  1.1933696078   7.4491880654   1.0949717237
 C  1.2202450335   8.7900881763   0.5915341217
 N  1.2261717225   9.8623787453   0.1570346702
 C  2.2405762058   6.5704659022   0.7691578394
 C  3.444357281   7.0323376855   0.0508464223
 C  4.1838445169   8.127485209   0.5048876553
 C  5.3139266587   8.5639030452   -0.165948088
 C  5.7461808219   7.9269647864   -1.3452564498
 N  6.8849089784   8.3471805103   -2.0030894525
 C  7.7135237375   9.3914340893   -1.4170931857
 C  7.161418756   7.9641042993   -3.3477937271
 C  6.238147959   8.2055279663   -4.3669310972
 C  6.5363296103   7.8503625109   -5.6773472238
 C  7.7634392937   7.2705943887   -5.9866129039
 C  8.689338744   7.0399065084   -4.9739470463
 C  8.3881724222   7.3767908967   -3.6589111111
 C  4.998515867   6.8203762788   -1.7995815859
 C  3.8832327551   6.3854940466   -1.1123160531
 C  2.0825090897   5.2289768005   1.1570116268
 C  3.1768747689   4.3186557761   0.9962999371
 N  4.0729127254   3.5934742442   0.8971028594
 C  0.9108890729   2.3527272333   1.2515226772
 H  -0.0038791165   -0.5300621519   0.214443456
 H  1.4725471289   -0.8911103799   1.106228785
 H  1.5109441865   0.2654332755   -0.2353503813
 H  -0.2353794899   -0.2597379018   3.0681859899
 H  -0.7926338751   1.5758825811   4.6258718227
 H  -0.2738514697   3.9245335758   4.0179655283
 H  -2.5312350276   6.4252586095   1.8192548205
 H  -4.3877044434   7.8619673487   2.6211007635
 H  -3.9077981832   10.0902663531   3.5756068295
 H  -1.9453277447   12.0896803473   3.3086324393
 H  -1.9040830838   11.3749430143   4.9186971384
 H  -0.4169099532   11.4826001023   3.9622652834
 H  0.2738334704   9.4777127173   2.9349118335
 H  3.8866262453   8.6424768229   1.4132476029
 H  5.8563548679   9.411934446   0.231223094
 H  8.0062231702   9.1315919819   -0.3952840886
 H  8.6174432304   9.5002207574   -2.0150152711
 H  7.1970102334   10.3600438152   -1.3968601849
 H  5.2879023989   8.6726729801   -4.1281944109
 H  5.8102033715   8.0410428817   -6.4619360501
 H  7.9966689008   7.0005400515   -7.0119436278
 H  9.6480726266   6.5851693291   -5.2044836491
 H  9.1027638401   7.1846660517   -2.864289341
 H  5.3018257578   6.2944379912   -2.6962631814
 H  3.3300691486   5.5353936478   -1.4993639832
 H  1.365292583   2.5674739593   0.2896756264
