62

 C  1.1494795353   1.2003047114   -1.4068187298
 C  1.0188765151   -0.1019025468   -2.1496615663
 C  2.1509222192   -0.7822476807   -2.6060695652
 C  2.0394029964   -1.9757542157   -3.3046253277
 C  0.7854972324   -2.5365774952   -3.5752778556
 C  0.6639216158   -3.8129494802   -4.3219331344
 C  1.5998572562   -4.8390786366   -4.1509419709
 C  1.4861738297   -6.0347733724   -4.8440204442
 C  0.4340690424   -6.2345361517   -5.7410816193
 C  0.3128997571   -7.5087329737   -6.490044707
 C  0.2135625153   -8.7401612842   -5.8268624215
 C  0.0938036822   -8.7578744064   -4.3993030811
 N  -0.0303417884   -8.7622167638   -3.2492564573
 C  0.1547908482   -9.9352742782   -6.5726458039
 C  0.1396800364   -11.2805288924   -5.9507541533
 C  0.9641813967   -11.5998053628   -4.8711549348
 C  0.9382811129   -12.8859612605   -4.3431242596
 C  0.0928113834   -13.8477284778   -4.8793640065
 C  -0.7371037425   -13.5496769144   -5.9648742776
 C  -1.6556077203   -14.5959588746   -6.5370418275
 C  -0.6931122123   -12.2646746714   -6.495011896
 N  0.0789236519   -9.908567555   -7.9019880811
 C  0.1141690029   -8.7564077839   -8.5692404414
 C  -0.0126770591   -8.8612707241   -10.0422894958
 C  0.6168167801   -9.9201420708   -10.7000467129
 C  0.4958313633   -10.0455121698   -12.0775903452
 C  -0.2649234697   -9.1336071507   -12.799493613
 C  -0.9211972421   -8.0800233242   -12.1584946067
 C  -1.769394048   -7.1147893228   -12.942678379
 C  -0.7815177334   -7.9543309606   -10.7783870654
 C  0.2921698277   -7.5326246267   -7.891962686
 C  0.531446987   -6.3196439372   -8.6159460874
 N  0.7539999396   -5.3424664449   -9.1935652417
 C  -0.5023817669   -5.213931764   -5.9225999822
 C  -0.389942362   -4.0249824876   -5.2178529654
 C  -0.3472254957   -1.8574609726   -3.1185884596
 C  -0.2294629619   -0.6631276396   -2.4172504934
 H  1.8931754714   1.1296618429   -0.6062401763
 H  0.1971890574   1.5021152467   -0.9623240102
 H  1.474392924   2.0053110223   -2.0764971076
 H  3.1369193007   -0.3660795188   -2.4154846327
 H  2.9383021161   -2.4692895377   -3.6615133949
 H  2.4202752247   -4.7103567483   -3.4525553028
 H  2.2263656289   -6.8142869742   -4.6937080111
 H  1.647493917   -10.8641898731   -4.4614313261
 H  1.5891412086   -13.1384566228   -3.5117844307
 H  0.077525063   -14.8486497185   -4.4558823847
 H  -1.1049099782   -15.5059510276   -6.7977208375
 H  -2.425856538   -14.8824651117   -5.8121055108
 H  -2.1597485174   -14.2337425755   -7.4368411541
 H  -1.321424679   -12.011139073   -7.3427896312
 H  1.2044618524   -10.6309574555   -10.129766572
 H  0.9973419161   -10.8599015668   -12.5913509522
 H  -0.3577156874   -9.2419378314   -13.8769923762
 H  -1.2044945849   -6.6769936713   -13.7724209838
 H  -2.6408576673   -7.6179567202   -13.3764741222
 H  -2.1322303907   -6.2995368664   -12.3112557862
 H  -1.30716232   -7.1515573477   -10.2711695851
 H  -1.3300284644   -5.3532222053   -6.6109768083
 H  -1.1237377782   -3.242661003   -5.3821769969
 H  -1.3338045903   -2.2765931259   -3.2913867368
 H  -1.1266134094   -0.1612255746   -2.0648984737
