59

 C  1.6921504678   -0.0512988163   0.4774484286
 C  0.8580856283   0.4865753953   1.6093261847
 C  0.1505504652   -0.3797331669   2.4460624615
 C  -0.5957811345   0.1085695036   3.5119312085
 C  -0.6512661654   1.4736609176   3.7598958191
 C  0.0293054541   2.3588441564   2.9212153848
 C  -0.0311414347   3.8108222955   3.2162011232
 N  0.0387776104   4.140562492   4.5046328589
 C  0.0252107023   5.4153439967   4.8896783412
 C  0.0703457762   5.6467714033   6.3536179889
 C  -0.7252308403   6.6116840131   6.9722711234
 C  -0.6707053853   6.7648684568   8.3534710943
 C  0.1746173042   5.9697037921   9.115171531
 C  0.9753392329   4.9926897428   8.5150126038
 C  1.8936523098   4.1377202491   9.3465806386
 C  0.9024297167   4.8371167255   7.1348934865
 C  -0.0100365934   6.457588698   3.9411406227
 C  0.0908383426   7.8282925972   4.3459753204
 N  0.1843092372   8.937622559   4.6596605372
 C  -0.1388217773   6.1552839792   2.5787512784
 C  -0.233775702   7.228193821   1.555210482
 C  0.8355973985   8.1000909539   1.3426954443
 C  0.7447157908   9.0998505979   0.385422121
 C  -0.4150965938   9.2631108875   -0.3795088499
 C  -0.5114241574   10.3374397453   -1.3990884049
 C  0.6042211786   10.7064942881   -2.1593704219
 C  0.5232981072   11.7113823796   -3.1144068489
 C  -0.6909804256   12.3467936559   -3.3026490685
 F  -0.7782185056   13.323696916   -4.2278506298
 C  -1.818802618   12.0140145914   -2.5740054365
 C  -1.720024563   11.0068027829   -1.6231018975
 C  -1.4820196437   8.3864276827   -0.1561576418
 C  -1.3942936725   7.3799215223   0.7943584306
 C  -0.1745773092   4.8002772601   2.2222177128
 C  -0.3671470078   4.4446762753   0.8475978676
 N  -0.5366004714   4.170147117   -0.2631123556
 C  0.7834662693   1.855352372   1.8570770652
 H  2.0914653972   0.7562183657   -0.1417869156
 H  1.1042398059   -0.7145858887   -0.1656460144
 H  2.5388103032   -0.6358904504   0.8547126366
 H  0.1918548205   -1.4501272991   2.2619504638
 H  -1.1372020923   -0.5788772253   4.1545823654
 H  -1.2266889894   1.860844312   4.5935071593
 H  -1.4088972548   7.2204410089   6.3911978678
 H  -1.2993776941   7.5064596894   8.8365041883
 H  0.2123883799   6.1012757401   10.1934425752
 H  2.6860045324   4.7409210492   9.8040252129
 H  1.3493916961   3.6499184482   10.1621270779
 H  2.36975367   3.3608608157   8.742552896
 H  1.5068465467   4.0791022688   6.647032202
 H  1.745582456   7.9946515271   1.9250105615
 H  1.5833696346   9.7742535016   0.2462115728
 H  1.5478410214   10.1894347197   -2.0190122259
 H  1.3818827301   11.9968478774   -3.7125034788
 H  -2.7501578169   12.542276947   -2.7468181637
 H  -2.594885967   10.7531414131   -1.033373705
 H  -2.389036291   8.4784621504   -0.7446690239
 H  -2.2356717642   6.7117176859   0.9487100207
 H  1.3487198847   2.531981504   1.2244371231
