60

 C  0.4288308375   -0.3496754524   -0.0549597334
 C  0.2185025691   -0.7281498937   1.3867466352
 C  0.7851502433   -1.8923277794   1.9095100519
 C  0.5573187078   -2.2669734827   3.2288855791
 C  -0.2389253658   -1.482023525   4.0514565986
 C  -0.7949767463   -0.3005427365   3.5556616132
 C  -1.6532512527   0.5169518452   4.4468097021
 N  -2.4868117932   -0.1634330299   5.2325844984
 C  -3.3200219656   0.4675734838   6.0586607754
 C  -4.2079510781   -0.4053734906   6.8657236117
 C  -3.6729523882   -1.5641018668   7.4356948579
 C  -4.4859992778   -2.4008750368   8.1859662132
 C  -5.8345587654   -2.1022593768   8.3540169562
 C  -6.3939465574   -0.9643199026   7.7723021537
 C  -7.8630710969   -0.6655841148   7.9083756781
 C  -5.5640806346   -0.119930966   7.0347135602
 C  -3.3276070932   1.8742324734   6.1485897502
 C  -4.1951409059   2.5523048359   7.0656538067
 N  -4.8854607535   3.110476363   7.8069734955
 C  -2.4470186872   2.6268777313   5.359915438
 C  -2.3949486217   4.108192956   5.4528646213
 C  -2.0436871141   4.7318245801   6.6515835784
 C  -1.9868389511   6.1153509084   6.7299404295
 C  -2.2916424982   6.9105462354   5.6208044423
 C  -2.237371685   8.3903198429   5.7099081091
 C  -1.256887086   9.0233174108   6.4830367671
 C  -1.2001903694   10.4043035553   6.5703374786
 C  -2.1352427016   11.1790367361   5.8779509851
 C  -2.0831324118   12.6087087022   5.9638325659
 N  -2.0410516407   13.7631202587   6.0331967092
 C  -3.1211952251   10.5630721771   5.1018563055
 C  -3.1657311436   9.181170477   5.0226307242
 C  -2.6479903017   6.2780161564   4.4255352099
 C  -2.6923168917   4.8946520057   4.3380706753
 C  -1.597910819   1.9246153209   4.4943175661
 C  -0.6114442333   2.6508578082   3.7502669873
 N  0.1953780259   3.2459439475   3.1735417274
 C  -0.5652519631   0.0617503568   2.225613361
 H  0.1680768245   0.6967976427   -0.2345335245
 H  -0.1915343741   -0.965039637   -0.7171103044
 H  1.4701824183   -0.5002434572   -0.3560857317
 H  1.4075589903   -2.51466388   1.2719524927
 H  1.0037085216   -3.176642734   3.6187127992
 H  -0.4232983851   -1.7717429455   5.0800737332
 H  -2.6219656857   -1.7939156262   7.2985517929
 H  -4.0674142469   -3.2917505533   8.6441095238
 H  -6.4643788585   -2.7646616485   8.9417149783
 H  -8.4318551818   -1.1122933776   7.0840752057
 H  -8.2657044797   -1.0719726536   8.8405295739
 H  -8.0544632262   0.4112046736   7.8910468999
 H  -5.9969769699   0.7579276253   6.5657782694
 H  -1.8049310364   4.1344071979   7.5255676982
 H  -1.7210306254   6.5805440258   7.6733743283
 H  -0.5158567575   8.4296973855   7.0075057924
 H  -0.4318531922   10.8850669394   7.1658388995
 H  -3.8499124607   11.1665016844   4.5718035539
 H  -3.9459326486   8.7104812626   4.4341345673
 H  -2.8730122593   6.8708397909   3.5451757736
 H  -2.9659237734   4.4234696496   3.3993229054
 H  -1.0240349581   0.9578931211   1.8202412878
