61

 N  1.0355317982   -0.083045948   1.325728581
 C  2.143419073   -0.0729658681   0.9935963571
 C  3.5228447353   -0.0875552385   0.6077378051
 C  4.254067739   1.1051900417   0.4346033552
 C  3.6408027762   2.4519682276   0.4793420359
 C  4.3639466048   3.5101818462   1.0963316921
 C  3.8452350664   4.7726863035   1.1397757906
 C  2.5852335921   5.0651303759   0.5537365501
 C  2.0238227198   6.3664525516   0.5775295838
 C  0.8094299201   6.6123032856   -0.0083286238
 C  0.0977242904   5.569887788   -0.6476115927
 C  0.6151378628   4.3022312241   -0.6857865128
 C  1.8679985586   4.0165637994   -0.0837293196
 C  2.4224412885   2.7130793505   -0.1035610263
 N  5.5721218411   1.0760123265   0.2444278058
 C  6.2304284975   -0.0775109597   0.1484915673
 C  7.6974922091   0.02527526   -0.0308168286
 C  8.5926101616   -0.861261012   0.6275094455
 C  9.9436728907   -0.7310612791   0.4619244359
 C  10.4846835276   0.2796634854   -0.3734292103
 C  11.8807292454   0.4306518417   -0.5717055105
 C  12.36548389   1.4233804146   -1.3819827024
 C  11.4795431489   2.3150584889   -2.0331027064
 C  10.1266881256   2.194455031   -1.8600061609
 C  9.594317003   1.1755593969   -1.0267295257
 C  8.201808725   1.0288312909   -0.8268769907
 C  5.5400598542   -1.3070445586   0.1930086789
 C  6.204331503   -2.5471911914   -0.0775422325
 N  6.7289910235   -3.5491036104   -0.3198698959
 C  4.1657556827   -1.3222172784   0.4563816328
 C  3.4272417389   -2.6065473488   0.6047593109
 C  3.6404006522   -3.3600652289   1.7346274057
 C  2.948052505   -4.5728639798   1.9379229205
 C  2.0570459292   -5.0181462186   1.0005633567
 C  1.8201176108   -4.2774534065   -0.1855850746
 C  0.9086011916   -4.7393220339   -1.169834401
 C  0.6936405581   -4.0257319223   -2.3180675064
 C  1.3875265761   -2.8143520015   -2.5367130408
 C  2.2731093308   -2.3396339461   -1.6050571227
 C  2.5111822072   -3.0515124923   -0.3997955811
 H  5.3293094533   3.2947532069   1.5402366516
 H  4.3947914718   5.5743565027   1.6247869144
 H  2.5745671375   7.1644086714   1.0675886112
 H  0.3869954758   7.6122125263   0.01429256
 H  -0.8624723368   5.7809416589   -1.1081211711
 H  0.074279972   3.4962580157   -1.1737061641
 H  1.8719365129   1.9320314027   -0.6180412393
 H  8.2069458702   -1.6256986555   1.2925244594
 H  10.6233405153   -1.401349718   0.9800156147
 H  12.5571558543   -0.2555256412   -0.0698967745
 H  13.435767437   1.5314302477   -1.5291862598
 H  11.8802540441   3.0966351223   -2.6712161711
 H  9.4403104489   2.8752353568   -2.3555673563
 H  7.5239050015   1.7172050506   -1.3211190797
 H  4.3401805886   -3.0119783338   2.4880603759
 H  3.1285216035   -5.1432636195   2.843143443
 H  1.5180250464   -5.9496699242   1.1476282186
 H  0.3866841807   -5.6753835082   -0.9924065454
 H  -0.0049817927   -4.3881737443   -3.0656888856
 H  1.2189617315   -2.2572603004   -3.4531076777
 H  2.8042701303   -1.4129311241   -1.7945562694
