65

 N  1.1484433986   -0.0865123413   1.1154894253
 C  2.2593249647   -0.0704273016   0.7935624608
 C  3.6432677126   -0.0731135634   0.4244633043
 C  4.3667165937   1.1287093583   0.2859972946
 C  3.7391271575   2.4691480991   0.3302888189
 C  4.4356124994   3.5266747805   0.9785047409
 C  3.9056744543   4.7845496432   1.0204824047
 C  2.6603837978   5.0732378023   0.4022078964
 C  2.0887148772   6.3701322032   0.4224112026
 C  0.8894451175   6.6127600045   -0.1950396945
 C  0.2036446342   5.5711820853   -0.8633656658
 C  0.7316078786   4.307797683   -0.8989524891
 C  1.9695230545   4.025556232   -0.2651259807
 C  2.5349301433   2.7266793251   -0.2829933792
 N  5.6898609837   1.1157815214   0.1321837909
 C  6.3607893808   -0.0306317198   0.0411162937
 C  7.831730513   0.0876729338   -0.0924311056
 C  8.7142680173   -0.7919206199   0.5916499871
 C  10.0685157453   -0.6471457391   0.4698764025
 C  10.6252755432   0.3711903191   -0.3459314711
 C  12.0253396357   0.5364692286   -0.5002155857
 C  12.5254722778   1.5351485463   -1.2936357719
 C  11.6516472273   2.4191256699   -1.9710295706
 C  10.2952709825   2.2851643891   -1.840235416
 C  9.7470285573   1.2598073878   -1.025246361
 C  8.3503368143   1.0988069873   -0.8691032826
 C  5.6820150752   -1.2670833339   0.0446996318
 C  6.3714516423   -2.4899242965   -0.2421435759
 N  6.9232827964   -3.4731336574   -0.500655071
 C  4.2994860398   -1.3022525343   0.2700511815
 C  3.5677841369   -2.5911389978   0.3592378104
 C  3.8526043526   -3.45711077   1.39834797
 C  3.1900880466   -4.6963137413   1.5689674392
 C  2.2326293605   -5.0609643654   0.6590558625
 C  1.9464850866   -4.1893526901   -0.4112452698
 C  0.9541722379   -4.7093498804   -1.2681530822
 C  0.5800611511   -3.9782412067   -2.3650140129
 C  1.2095920036   -2.7280067546   -2.5957896585
 C  2.1767561723   -2.2183589497   -1.7587483633
 C  2.5783501615   -2.950243322   -0.610357813
 C  0.5036737093   -6.0540488565   -0.7397109265
 C  1.3584600253   -6.2890065304   0.5418233403
 H  5.3900669498   3.314406526   1.4467898122
 H  4.4349397931   5.585318991   1.5289676937
 H  2.619773441   7.1671749423   0.9351975613
 H  0.4589856147   7.6093213693   -0.1750339694
 H  -0.745085651   5.779615831   -1.3481905249
 H  0.2106795988   3.5026246431   -1.4093480807
 H  2.0045233331   1.9473380827   -0.8206157348
 H  8.3143973733   -1.5618374311   1.2418919086
 H  10.7385768563   -1.3114752428   1.007786522
 H  12.6926454517   -0.1436803021   0.0215305404
 H  13.5987238624   1.6537419119   -1.4071253789
 H  12.0644158913   3.2052420666   -2.5957395541
 H  9.6180370975   2.9597418096   -2.356433646
 H  7.6808821682   1.7816082353   -1.3822977209
 H  4.6061670424   -3.1694185113   2.1256574338
 H  3.4519425107   -5.3282742901   2.411992511
 H  -0.1778024154   -4.3341725693   -3.0568565038
 H  0.917165904   -2.1529246231   -3.4695973201
 H  2.6332883354   -1.2605116966   -1.9866298918
 H  0.6635587992   -6.8444143573   -1.479786772
 H  -0.5669700543   -6.0496383955   -0.5120353419
 H  1.9654026741   -7.1962942608   0.4610233416
 H  0.7300414637   -6.4107057566   1.429719403
