65

 C  0.9058555967   0.0961360527   -0.394916301
 O  1.7455805666   -1.0345768953   -0.5755244739
 C  1.718446397   -1.9997704167   0.3699078418
 C  2.5895462765   -3.0963669955   0.1212281862
 C  2.6577412112   -4.1369490012   0.9986530473
 C  1.8613823721   -4.1498050842   2.1769207486
 C  1.9115634087   -5.2179670207   3.0993041629
 C  1.1422162127   -5.2058161308   4.2417140845
 C  1.2177242554   -6.3258951847   5.2083866435
 C  1.5230183383   -6.1058926761   6.5601335156
 C  1.9082966649   -4.7935556067   6.9859510362
 N  2.2463631109   -3.7367798933   7.313365165
 C  1.5263684314   -7.1887991453   7.4628568772
 C  1.7345314288   -7.035207171   8.9211861239
 C  2.5019314304   -8.0167140442   9.607693846
 C  2.6956862425   -7.9287165677   10.9567203773
 C  2.1212849917   -6.8704146339   11.7094890307
 C  2.2988340688   -6.7558539365   13.1111585383
 C  1.7199377244   -5.7254156247   13.8050626681
 C  0.9339095018   -4.7603175946   13.1322624232
 C  0.7453355279   -4.8449983714   11.7782183375
 C  1.3360797171   -5.8980544115   11.0325182781
 C  1.1610730924   -6.0056276025   9.6308702214
 N  1.3674310984   -8.4390828611   7.0327619964
 C  1.1329660707   -8.6984878822   5.7477841525
 C  1.0049026577   -10.1305914727   5.3895297345
 C  1.5583592599   -10.6494765033   4.1873607078
 C  1.4479844001   -11.9798041587   3.8911951959
 C  0.7735529337   -12.8705969011   4.7651927288
 C  0.6346023643   -14.2523799528   4.4779264092
 C  -0.0195111454   -15.0825077077   5.3497960336
 C  -0.5658177558   -14.5734294173   6.5524165406
 C  -0.4463336746   -13.2439183738   6.857322851
 C  0.2256748615   -12.3588167612   5.973613719
 C  0.3672105898   -10.9816143489   6.2636821134
 C  0.9885265734   -7.6522242126   4.8129216125
 C  0.5283304592   -7.9194886676   3.4827131565
 N  0.126366592   -8.1371465946   2.4200508223
 C  0.2790856428   -4.1055962057   4.4892267196
 C  0.2039845032   -3.0670070295   3.6018880911
 C  0.9938057876   -3.0522700373   2.4232358029
 C  0.9345740795   -1.9774660033   1.4991367132
 H  1.0799375427   0.7418913056   -1.2562685584
 H  1.1601414493   0.6377377772   0.5228192481
 H  -0.1503292592   -0.1933855506   -0.3652409368
 H  3.1917276636   -3.0767210763   -0.7812061837
 H  3.3236758586   -4.9730606601   0.8060258026
 H  2.5869152323   -6.044937995   2.9002252962
 H  2.9373874052   -8.831086489   9.0397967623
 H  3.2942206677   -8.6730946824   11.4739708817
 H  2.9014682698   -7.5000137317   13.6242153618
 H  1.8608998154   -5.64562641   14.878680491
 H  0.4813499182   -3.9505829709   13.6962772112
 H  0.1438867955   -4.1075147748   11.254261881
 H  0.5369990392   -5.2680459229   9.1368035353
 H  2.1010377274   -9.9946891859   3.5149902505
 H  1.8870143267   -12.3737001648   2.9791728613
 H  1.055747163   -14.6390624934   3.5542108045
 H  -0.1225017349   -16.1390029756   5.1216337186
 H  -1.0807622831   -15.2449143904   7.232496284
 H  -0.8625210008   -12.8456673687   7.7783837101
 H  -0.0456328675   -10.5935905272   7.1892015067
 H  -0.3402731088   -4.1029913136   5.3803574425
 H  -0.4686898942   -2.2359265137   3.7924447301
 H  0.2648794075   -1.1518408384   1.7081324201
