65

 C  -0.8141259996   -0.8741228687   0.1429285857
 O  0.3612142682   -0.4078177217   -0.5067303723
 C  0.5664928007   -0.765743812   -1.7898399196
 C  -0.2874931714   -1.5527618082   -2.5244666663
 C  0.0258228447   -1.8607347228   -3.8629107329
 C  1.1623854865   -1.389356661   -4.4724026788
 C  1.4040914073   -1.7284540054   -5.8987972202
 C  1.3268637979   -0.7589315123   -6.9084021801
 C  0.9208231808   0.5689945764   -6.5560687481
 N  0.5707303302   1.6298879553   -6.2562714355
 C  1.5820622122   -1.1194408864   -8.2467874984
 C  1.6059715683   -0.1485691333   -9.3650409139
 C  1.0598706823   -0.5409236118   -10.618698114
 C  1.0805963291   0.3135747504   -11.6837939579
 C  1.6638178253   1.6036064929   -11.5738351113
 C  1.7057824244   2.5102893933   -12.6625919921
 C  2.2867556804   3.7434741168   -12.5205179124
 C  2.8550776239   4.1300252924   -11.2838026174
 C  2.8287273111   3.2749917989   -10.2140407075
 C  2.2301983633   1.9935392998   -10.3299391533
 C  2.1847824999   1.0927928408   -9.2374341475
 N  1.7913612092   -2.3915716267   -8.5827613201
 C  1.8183303177   -3.3525973626   -7.6615387167
 C  2.0248956706   -4.726206428   -8.1760684689
 C  2.9036812421   -4.9119375029   -9.2793550821
 C  3.1066536292   -6.1559003269   -9.804870116
 C  2.4326578369   -7.2896184928   -9.2788542884
 C  2.6176408948   -8.5920296751   -9.8067890975
 C  1.9416133243   -9.6607035034   -9.2783034036
 C  1.0470200247   -9.4794476986   -8.1972444775
 C  0.8483999071   -8.2324829084   -7.6664163787
 C  1.5375631596   -7.1077866285   -8.1899007766
 C  1.3541818958   -5.8086088913   -7.6554144521
 C  1.6838024172   -3.0435839982   -6.2918009334
 C  1.8837037402   -4.0375985815   -5.2794062584
 N  2.0683748128   -4.8291700759   -4.4563724674
 C  2.0803610131   -0.5810999225   -3.7253897034
 C  3.2988162   -0.097419766   -4.2672214581
 C  4.1530902508   0.6681853828   -3.5159901273
 C  3.8382468084   0.9884796465   -2.1795994579
 C  2.6748460179   0.5266222493   -1.6207266586
 C  1.7760676219   -0.2666402251   -2.3735160665
 H  -1.7155317219   -0.5105850332   -0.3613944865
 H  -0.776546271   -0.4704677357   1.1550392208
 H  -0.8341190527   -1.9680481256   0.1869404438
 H  -1.2037944203   -1.9401174818   -2.0982173175
 H  -0.6682002508   -2.4760998309   -4.4272621027
 H  0.6180960324   -1.5266319035   -10.7113524663
 H  0.6497805366   0.0140711618   -12.6349044711
 H  1.2701051604   2.208912355   -13.6110244336
 H  2.3148318287   4.4314140069   -13.3600339294
 H  3.3124910671   5.1098762774   -11.1875369158
 H  3.2618057834   3.5647983537   -9.2608142295
 H  2.6470291853   1.3994305979   -8.304785248
 H  3.416481345   -4.0495379351   -9.6899335138
 H  3.7893527827   -6.293618673   -10.638461531
 H  3.3041085939   -8.7262017645   -10.6380278311
 H  2.089298575   -10.6548422718   -9.6891087585
 H  0.5186146218   -10.3359356252   -7.7900797067
 H  0.1639332012   -8.0855456624   -6.8356854332
 H  0.6469986268   -5.6882692848   -6.8413629397
 H  3.5628939752   -0.3453395069   -5.289693026
 H  5.0804939936   1.0265980852   -3.9520238331
 H  4.5210844725   1.5956199193   -1.5936849654
 H  2.4275364756   0.7592666398   -0.5919193222
