77

 N  1.2023652011   -0.4234541779   0.8446287972
 C  2.3132860749   -0.3459588237   0.5311524107
 C  3.6989195398   -0.2619975322   0.1776235806
 C  4.3881256407   0.9649881575   0.2591171352
 C  3.719092406   2.2609474707   0.518492909
 C  4.3656160543   3.2043029613   1.3642438253
 C  3.7993987831   4.4234680532   1.6055598637
 C  2.5660211213   4.7876945996   1.0033991349
 C  1.9583768625   6.0486571961   1.2271917893
 C  0.7731349071   6.3691222238   0.6182197697
 C  0.1376150393   5.4450145735   -0.2443723484
 C  0.7004677442   4.2183705477   -0.4782733466
 C  1.925216031   3.857179556   0.1409438943
 C  2.5270469723   2.5942196539   -0.0817781874
 N  5.7125354705   1.0183546946   0.1308990002
 C  6.4178754366   -0.0770045073   -0.1458566774
 C  7.8856325246   0.1052941503   -0.2388541907
 C  8.7902587442   -0.8549695625   0.2903340546
 C  10.1402470268   -0.6513493945   0.213599819
 C  10.6710379592   0.5110838987   -0.4023339818
 C  12.0662715895   0.7428541896   -0.5057317059
 C  12.5408190735   1.8807357562   -1.1033146203
 C  11.6448486667   2.8434757814   -1.6270312497
 C  10.2924063706   2.6476763713   -1.5408523178
 C  9.7705839006   1.4789638254   -0.9263501139
 C  8.378531033   1.2520321349   -0.8191152043
 C  5.778304527   -1.3138925755   -0.3663037045
 C  6.5136077962   -2.4334362821   -0.8741957919
 N  7.1027491093   -3.3266907006   -1.3139157666
 C  4.3920974122   -1.4308432757   -0.1752893441
 C  3.695808143   -2.7251578822   -0.3404928887
 C  4.1188137967   -3.8615323309   0.356144195
 C  3.4723565635   -5.0754104557   0.2017806842
 C  2.3761577383   -5.1977616106   -0.6647279172
 N  1.7224119796   -6.4266506845   -0.8284978514
 C  1.6883524976   -7.3814217932   0.2275048671
 C  1.3148835017   -6.9994411995   1.5180687153
 C  1.2790097094   -7.9399131899   2.5403851076
 C  1.5937581682   -9.2715379207   2.2851515148
 C  1.9543988692   -9.6545246667   0.9968645993
 C  2.0098493854   -8.7160618128   -0.026807878
 C  1.0849228372   -6.7561168655   -2.0583996689
 C  1.752522142   -6.5848126926   -3.2733637977
 C  1.1237483001   -6.9173695314   -4.4670907214
 C  -0.1656433788   -7.4416265773   -4.4630997955
 C  -0.8265255924   -7.623140353   -3.2520375132
 C  -0.2109242155   -7.2758893946   -2.0553535243
 C  1.9516085697   -4.0582917647   -1.3640110482
 C  2.5998014158   -2.8464978225   -1.2006496126
 H  5.3113717014   2.9350487741   1.8209119642
 H  4.2901217054   5.1349964871   2.2634535345
 H  2.4506048972   6.7558519595   1.8888434732
 H  0.3154380778   7.3378159239   0.7943412899
 H  -0.8004679501   5.714161887   -0.7199596211
 H  0.2182282302   3.5031357002   -1.1386122534
 H  2.0360566103   1.9074521867   -0.7639144099
 H  8.4091877715   -1.7393561593   0.7885271402
 H  10.8266806668   -1.3801129539   0.6348785184
 H  12.7505853316   0.0017728671   -0.1023596717
 H  13.6106706134   2.0499779036   -1.1785627639
 H  12.0374365109   3.7392858769   -2.0981624951
 H  9.598128126   3.3816658389   -1.9401938215
 H  7.6921512049   1.9945687703   -1.2131323815
 H  4.9617039475   -3.7976005515   1.0371013408
 H  3.825490643   -5.9387856302   0.7530148583
 H  1.0523975416   -5.965496991   1.7171625086
 H  0.9880319672   -7.6300488556   3.539646971
 H  1.5571943068   -10.0052793009   3.0843214196
 H  2.2059810769   -10.6895687462   0.7856823958
 H  2.3037317546   -9.014626513   -1.0278571659
 H  2.764207685   -6.1921381383   -3.2794648642
 H  1.6532501478   -6.7787501196   -5.4049561742
 H  -0.6510170738   -7.7078831795   -5.3968762254
 H  -1.8341156134   -8.0277643394   -3.2357229262
 H  -0.7333045364   -7.4062317689   -1.1131666673
 H  1.1046153511   -4.1207962932   -2.0368929835
 H  2.2512998557   -1.9853150499   -1.7619158885
