69

 N  1.1657012757   -0.4441863763   0.4992078482
 C  2.3003481444   -0.3770231897   0.2841986003
 C  3.7125140907   -0.3069200289   0.0528497832
 C  4.3923193667   0.9274915328   0.1035391366
 C  3.703240622   2.234195187   0.2091927461
 C  4.2778027985   3.243322836   1.0307543985
 C  3.6889266663   4.4709077594   1.137360142
 C  2.5039895639   4.77747035   0.4172971056
 C  1.8730141438   6.0439251499   0.502969549
 C  0.7354336834   6.3057912798   -0.2151353173
 C  0.1741246188   5.3154244837   -1.0553884276
 C  0.7616356261   4.0823666134   -1.1578396597
 C  1.9372565102   3.7804942877   -0.4224666134
 C  2.5607775271   2.5111617265   -0.5053020953
 N  5.7227854154   0.9776893533   0.0880411909
 C  6.4504409659   -0.1298984593   -0.044080072
 C  7.9203955586   0.0535604975   -0.0166110245
 C  8.7726255755   -0.8666580471   0.6523255884
 C  10.1242454044   -0.6622723727   0.6838561988
 C  10.7096782432   0.4611069152   0.0454639434
 C  12.1088819311   0.6920031921   0.05327823
 C  12.6365907022   1.7919688654   -0.5701588151
 C  11.7923810591   2.7162066966   -1.2311813335
 C  10.4374336226   2.5203038869   -1.2545126964
 C  9.86101504   1.3898766806   -0.6175149103
 C  8.4647584274   1.1634347565   -0.6222736292
 C  5.8319147999   -1.3837393881   -0.2278902151
 C  6.6048381115   -2.5380849596   -0.5778728367
 N  7.2244847418   -3.4635780064   -0.8902697975
 C  4.4356243135   -1.491749109   -0.1486716007
 C  3.7543909715   -2.8016990866   -0.2706607888
 C  4.0891385597   -3.8580311826   0.5839358007
 C  3.4466016892   -5.0797670424   0.4805771667
 C  2.4593569344   -5.2957233108   -0.4917811841
 C  1.7500386603   -6.5697679516   -0.6585661943
 C  2.0068622812   -7.7102580588   -0.0030143046
 C  1.2992201983   -8.9874625765   -0.1623065752
 C  1.789805337   -10.111225571   0.5145854243
 C  1.1681696232   -11.3487587473   0.3981696711
 C  0.0364152752   -11.486955685   -0.3979380709
 C  -0.4676894082   -10.376617182   -1.072717085
 C  0.1533833152   -9.1412671723   -0.956262
 C  2.1346608503   -4.2322047568   -1.3433574521
 C  2.764515785   -3.0020414002   -1.2350151456
 H  5.1860536102   3.0177714383   1.5781195903
 H  4.1235773627   5.2332836633   1.7774728508
 H  2.3082773863   6.8021856786   1.1477472765
 H  0.2588195741   7.2787323719   -0.1435699999
 H  -0.7268124079   5.5386230205   -1.6184948771
 H  0.3362657207   3.3164429596   -1.8001514122
 H  2.1274422775   1.7720208672   -1.1714205058
 H  8.3479793981   -1.7189603601   1.1706560914
 H  10.7689960923   -1.359851742   1.2105129268
 H  12.753221125   -0.0194383311   0.5620210356
 H  13.7091037905   1.9606704176   -0.5602552746
 H  12.226695358   3.5826611105   -1.7202469067
 H  9.7829737442   3.225249079   -1.7594088617
 H  7.8175771657   1.8762927337   -1.1228863752
 H  4.8429539831   -3.7136790826   1.3514564419
 H  3.7151223182   -5.8701405053   1.1731309675
 H  0.9559067503   -6.545684502   -1.4013186032
 H  2.8203541534   -7.7378772294   0.7188124335
 H  2.673917921   -10.0073776476   1.1378970421
 H  1.5691390579   -12.2056590777   0.9313266227
 H  -0.4535339172   -12.4514212037   -0.4910537603
 H  -1.3544942082   -10.4742568812   -1.6919879959
 H  -0.2624571838   -8.2885581866   -1.4833310344
 H  1.3749054766   -4.376697946   -2.1058579239
 H  2.4986868292   -2.1998730341   -1.9161344272
