71

 C  0.1833155383   0.336856571   -1.1104846456
 C  0.1750300691   -1.0723235499   -0.532773819
 N  0.63883912   -2.0761871709   -1.4780045982
 C  -0.1520493491   -2.7431577064   -2.4014538918
 C  -1.5299843982   -2.6592006615   -2.6074695788
 C  -2.0813767746   -3.4530066047   -3.6024127853
 C  -1.2898140611   -4.3109715807   -4.3807380982
 C  0.0791807445   -4.3879289198   -4.1753544349
 C  0.65771183   -3.5983211886   -3.1805795477
 C  2.0115703975   -3.4224742264   -2.70163658
 C  3.2343794486   -3.9804020775   -3.0584165335
 C  4.3880268887   -3.5730257374   -2.391337534
 C  5.706026544   -4.1429000678   -2.7586612079
 C  6.7584648418   -3.3246689468   -3.1972128083
 C  6.5190938628   -1.9237773506   -3.3805163196
 N  6.3101712694   -0.7988052553   -3.5505093067
 C  7.9947021261   -3.8982133496   -3.554497399
 C  9.1586468769   -3.1034042158   -4.0135405486
 C  9.9506155068   -3.6082865306   -5.0816833827
 C  11.048159895   -2.9222490672   -5.5176761523
 C  11.4384030387   -1.7026760091   -4.9038422701
 C  12.5770213635   -0.9724640915   -5.3276884127
 C  12.928451862   0.195418392   -4.7023690983
 C  12.1594920474   0.6898302427   -3.6225536309
 C  11.053379247   0.00616879   -3.1920024284
 C  10.6631005313   -1.2037556584   -3.8222948025
 C  9.5215546606   -1.9281281206   -3.3986244799
 N  8.1806568091   -5.2171109064   -3.5109918867
 C  7.2120446863   -6.0286282725   -3.0894234802
 C  7.5464114754   -7.4745086369   -3.0644149749
 C  7.2120672153   -8.2980838506   -1.9555889206
 C  7.5549553432   -9.6220863317   -1.9477248873
 C  8.2392432416   -10.2073827034   -3.0434727786
 C  8.5974574122   -11.5795998211   -3.0664902351
 C  9.2636295795   -12.1076013428   -4.1408073321
 C  9.605931411   -11.2902900734   -5.2448656941
 C  9.2742967913   -9.9618310882   -5.250655068
 C  8.5838119078   -9.3858257841   -4.1518050901
 C  8.232319151   -8.0155228611   -4.1274442603
 C  5.9543316383   -5.5228448595   -2.7040315552
 C  4.9079335894   -6.407761264   -2.2852368012
 N  4.0623307087   -7.1233319563   -1.9522608636
 C  4.3062528227   -2.610189238   -1.3651182489
 C  3.0982288762   -2.0544568895   -0.9849745492
 C  1.9469577816   -2.4671185948   -1.6599540671
 H  1.1938068062   0.6323306892   -1.4090629574
 H  -0.1746109361   1.0501949215   -0.3613714424
 H  -0.4683838674   0.4052763653   -1.9868906362
 H  0.8113125634   -1.1300813572   0.3537241728
 H  -0.8325268866   -1.3540756294   -0.2171887373
 H  -2.1519823944   -1.9962894298   -2.0154515081
 H  -3.1512606853   -3.4063793154   -3.7826220836
 H  -1.7557062159   -4.9173887772   -5.15111807
 H  0.6934184247   -5.0504557032   -4.7783142691
 H  3.2905380471   -4.7088272501   -3.8614017615
 H  9.66345816   -4.5422843578   -5.5516492287
 H  11.6412981749   -3.3051987316   -6.3432109986
 H  13.1658455596   -1.3565299997   -6.1559188289
 H  13.8027212373   0.7478539841   -5.0329819247
 H  12.4512298529   1.6159552715   -3.1369984452
 H  10.4573340745   0.3796486093   -2.3640357109
 H  8.9579236914   -1.5438906469   -2.5547746905
 H  6.7106373565   -7.869508044   -1.095271786
 H  7.3114670668   -10.2430909468   -1.0905692547
 H  8.3332664519   -12.2027809506   -2.2167630182
 H  9.5333146145   -13.1592639533   -4.1508160368
 H  10.1344898979   -11.7240300616   -6.0881318903
 H  9.5340037453   -9.3283733928   -6.0941109059
 H  8.503926177   -7.3894235306   -4.9715339947
 H  5.2114677809   -2.308730429   -0.8477518455
 H  3.0573977352   -1.3202487683   -0.1879991597
