75

 N  1.403531075   -0.5161413227   1.0292943918
 C  2.4973475911   -0.4217782726   0.6650157472
 C  3.8629518772   -0.3270842506   0.2420555665
 C  4.558274159   0.8988524254   0.2943637656
 C  3.910142274   2.1917410474   0.6122247615
 C  4.6179502894   3.1296720012   1.4140296032
 C  4.0680856565   4.3437424525   1.7117370722
 C  2.7893159535   4.7081740499   1.2133278937
 C  2.1949573687   5.9625397136   1.5004353589
 C  0.9626184411   6.2822475199   0.9929283214
 C  0.2651516916   5.3645251127   0.1724601078
 C  0.8145495057   4.1448042349   -0.1218460971
 C  2.0866617015   3.7840185362   0.393298269
 C  2.6741307272   2.526546323   0.1098272205
 N  5.8718860292   0.9498774151   0.0827192752
 C  6.5591519704   -0.1417445529   -0.248600825
 C  8.0175075414   0.0424807621   -0.4343130208
 C  8.955417455   -0.9264455341   0.015322205
 C  10.2970856386   -0.7209941599   -0.1501761417
 C  10.7858357962   0.4522122153   -0.7801310853
 C  12.1709443877   0.6854779747   -0.9754025764
 C  12.6045271953   1.8337862582   -1.5840699359
 C  11.6758610106   2.806202796   -2.0266814248
 C  10.3323741174   2.6093568771   -1.8504665512
 C  9.8525924151   1.429375013   -1.2233259627
 C  8.4709543137   1.1998798705   -1.0259600017
 C  5.9054445527   -1.3772562469   -0.435495526
 C  6.6020303224   -2.5049528681   -0.9788233846
 N  7.1523123079   -3.4100279384   -1.4435918706
 C  4.5358599068   -1.4894046387   -0.1588232678
 C  3.8280909193   -2.7876437164   -0.2855392884
 C  4.2407445027   -3.8926850303   0.4625060498
 C  3.5844720557   -5.1084122433   0.3412684532
 C  2.5013554991   -5.2322445354   -0.5281481855
 N  1.8298665898   -6.4726558471   -0.6529355842
 C  1.2857343492   -7.2160820108   0.3945419248
 C  1.2350148479   -6.923100201   1.7571326333
 C  0.6051753183   -7.8371416783   2.5896407795
 C  0.0334562274   -9.0144306355   2.0867060324
 C  0.077435475   -9.2945810746   0.7295575592
 C  0.7049298332   -8.389780724   -0.1280012988
 C  0.9130777755   -8.3573201124   -1.5605376482
 C  0.585246591   -9.2322829022   -2.5972324649
 C  0.9557167737   -8.9076090734   -3.8932247479
 C  1.6544284601   -7.7211991099   -4.1579909753
 C  1.9904298522   -6.8352906617   -3.1443648274
 C  1.6051372304   -7.1622319992   -1.8445048209
 C  2.081645815   -4.132288049   -1.2753280803
 C  2.7433933642   -2.9192710605   -1.155544721
 H  5.5973783302   2.8598760433   1.7925826148
 H  4.6068238816   5.050547117   2.3362664483
 H  2.7349071321   6.6649983116   2.1291145961
 H  0.5148681107   7.2454631498   1.2178880587
 H  -0.7097613277   5.6330279936   -0.2225653198
 H  0.2845602352   3.4345761097   -0.7501865092
 H  2.1333491411   1.8458807834   -0.5396588438
 H  8.6103627443   -1.8198207271   0.5233470988
 H  11.0097808933   -1.4572070139   0.2100575163
 H  12.8804643347   -0.0630305886   -0.6340982428
 H  13.6667594145   2.0040173852   -1.7308880764
 H  12.036175169   3.710470691   -2.5073355395
 H  9.6132966861   3.3509446145   -2.1869368312
 H  7.759968697   1.9490034841   -1.3590601242
 H  5.078717498   -3.80364007   1.1461702438
 H  3.9185999707   -5.9661207454   0.9145233078
 H  1.6677030381   -6.0129995523   2.1569512869
 H  0.5540988826   -7.6317877959   3.6546939021
 H  -0.4501380747   -9.7085969601   2.7668171001
 H  -0.3723051862   -10.2015450782   0.3360832771
 H  0.0517875482   -10.1549711319   -2.3880240305
 H  0.7076039131   -9.5773896738   -4.7105940485
 H  1.9424703282   -7.4878888952   -5.1786275352
 H  2.5365319286   -5.923927985   -3.3603861734
 H  1.2321909276   -4.2246405079   -1.942940003
 H  2.4149210321   -2.0704311066   -1.7464468506
