69

 N  1.1388085467   0.0980487813   1.5071869677
 C  2.2304031264   0.0669054176   1.1259872916
 C  3.5901346649   0.0043428046   0.6793257731
 C  4.3496935847   1.1718551533   0.4608179355
 C  3.7817341286   2.5382048424   0.5187594277
 C  4.5655129927   3.5780555034   1.0915304735
 C  4.091023408   4.8575588496   1.1429277195
 C  2.8168518672   5.1859043448   0.6089286429
 C  2.3003617806   6.5054919303   0.6416124255
 C  1.0704712844   6.785925624   0.1057758649
 C  0.2971969339   5.7612837107   -0.4892417134
 C  0.7700561935   4.4765513049   -0.5344445088
 C  2.0380475631   4.1553399789   0.0158569102
 C  2.5479388955   2.8339477567   -0.0132012233
 N  5.655627228   1.099337996   0.2093931682
 C  6.2730507626   -0.075190543   0.0960315331
 C  7.7310130241   -0.0188070562   -0.1616669223
 C  8.6346835879   -0.9267011862   0.4545485407
 C  9.9775936247   -0.8394222723   0.2117525577
 C  10.5004682371   0.1461242184   -0.6644108393
 C  11.8865905641   0.2511482969   -0.9447826415
 C  12.3539684027   1.2198665341   -1.793452501
 C  11.459826926   2.1324036115   -2.4031359898
 C  10.1162492662   2.0565346911   -2.1505195063
 C  9.60203407   1.0634111232   -1.275716929
 C  8.219605988   0.9620402801   -0.994991117
 C  5.548187672   -1.281822004   0.1881478332
 C  6.1599186929   -2.545220382   -0.0982819623
 N  6.6391939195   -3.5671921837   -0.3507316291
 C  4.1859674644   -1.2516294198   0.5092466352
 C  3.4155133948   -2.5107257586   0.6988871916
 C  3.6827191014   -3.2830379878   1.8300148877
 C  2.9831743544   -4.452455002   2.0768908514
 C  1.9976767975   -4.8918844378   1.1902425527
 C  1.2538266323   -6.1010532553   1.423310114
 C  0.3059310292   -6.5186385374   0.5542907558
 C  0.0066933378   -5.77047807   -0.6373514215
 C  -0.9678969708   -6.1877479191   -1.5482776879
 C  -1.2346770567   -5.4456126952   -2.6923646072
 C  -0.5344529144   -4.2741487172   -2.9505626892
 C  0.4476649278   -3.8224506113   -2.0641889814
 C  1.1967068809   -2.619771685   -2.3014787901
 C  2.1422166491   -2.1922371607   -1.4337792324
 C  2.4387308765   -2.922919586   -0.2279106075
 C  1.7245511149   -4.1263688977   0.0257035891
 C  0.7255778514   -4.5726211811   -0.8927367034
 H  5.5417849862   3.3350769057   1.4955030122
 H  4.6874796248   5.6451681064   1.5943973573
 H  2.8981241842   7.2894405886   1.0980267502
 H  0.6827567557   7.799666646   0.1345791921
 H  -0.674660934   5.9998251595   -0.9101050117
 H  0.1818342747   3.6842320907   -0.9887488331
 H  1.9496172624   2.0669925469   -0.494235018
 H  8.2637196723   -1.6733661686   1.1474434117
 H  10.6650400956   -1.5254318915   0.6979621581
 H  12.5697397333   -0.4505333452   -0.4746048229
 H  13.4167476923   1.2922624273   -2.0034303731
 H  11.8468902149   2.8941462812   -3.0728327499
 H  9.4235486428   2.7530934673   -2.6142592234
 H  7.53549843   1.6661770276   -1.4573901209
 H  4.4411505149   -2.9509941286   2.5320103732
 H  3.1976313334   -5.0351419342   2.967564201
 H  1.4755302591   -6.6723915305   2.319987482
 H  -0.250520097   -7.4330025465   0.7393301009
 H  -1.5172922319   -7.1037109077   -1.3504530451
 H  -1.9948486113   -5.7845144627   -3.3893450082
 H  -0.7439473369   -3.6967708289   -3.8464754391
 H  0.9888047362   -2.0550981096   -3.2058207736
 H  2.6969903917   -1.2859815978   -1.6507350585
