64

 C  1.6964920027   -0.2776382756   0.2442168922
 C  1.2679277054   -0.9999546426   -1.0029274579
 C  2.0039496827   -0.8901200632   -2.1555179959
 C  1.6270652064   -1.5573371879   -3.3387948345
 C  0.508711369   -2.3509237635   -3.3732891958
 C  0.1675188731   -3.0552237252   -4.6397573945
 C  0.3907929681   -4.4288011447   -4.7951023626
 C  1.0358961151   -5.1423333728   -3.7336537656
 N  1.5763582154   -5.6957793158   -2.8737206969
 C  0.0277862415   -5.0628228389   -6.0007698991
 C  0.1386967352   -6.5226027343   -6.2232675189
 C  0.5494740729   -6.9863734143   -7.5039096966
 C  0.6429430008   -8.3241948582   -7.7613031104
 C  0.3134665749   -9.2838040839   -6.7677567117
 C  0.3940022864   -10.6785716578   -7.0070489617
 C  0.0573832375   -11.5745281682   -6.0260344939
 C  -0.3771175975   -11.1201018587   -4.7585594402
 C  -0.4644085864   -9.7781418539   -4.4983940897
 C  -0.1183194071   -8.8268917745   -5.4930041178
 C  -0.1944429625   -7.433627938   -5.2477738516
 N  -0.4197041659   -4.3538124632   -7.0360407889
 C  -0.5949247127   -3.0367682533   -6.9475210876
 C  -1.0699663453   -2.3617417097   -8.178036763
 C  -0.570154791   -1.090946864   -8.5729844701
 C  -1.0089774527   -0.5018253129   -9.7263845536
 C  -1.9764218895   -1.1339020108   -10.5490411006
 C  -2.4570318039   -0.5413977646   -11.7444565646
 C  -3.3884150537   -1.1857986007   -12.5153778959
 C  -3.8849075722   -2.4544526239   -12.1307299796
 C  -3.4387473612   -3.0519950997   -10.9824136771
 C  -2.4738414169   -2.4089717951   -10.1630004147
 C  -1.9916470406   -3.0037679561   -8.973872561
 C  -0.3595612533   -2.3587801376   -5.7330007504
 C  -0.7003736325   -0.9769319531   -5.5688396565
 N  -0.9956900357   0.1317035952   -5.4219932291
 C  -0.3023125205   -2.4909220558   -2.2029799901
 C  -1.4893057882   -3.2688990384   -2.1905662521
 C  -2.2489682719   -3.3805168631   -1.0557536681
 C  -1.8606215935   -2.7168575013   0.1264595907
 C  -0.7243252156   -1.9510212052   0.1432652331
 C  0.0866492661   -1.8095095255   -1.0131658153
 H  0.930282638   0.4274530435   0.5847731622
 H  2.6159489175   0.2845226701   0.0641730202
 H  1.8819364937   -0.9741944741   1.0691557797
 H  2.9004285958   -0.2775746114   -2.1624715523
 H  2.2401719069   -1.4488692428   -4.2282905174
 H  0.7959403201   -6.2588707936   -8.2689735353
 H  0.9704866563   -8.6728472457   -8.7365100326
 H  0.7259433293   -11.0233308699   -7.9823004024
 H  0.1214585116   -12.6411576653   -6.2184478273
 H  -0.6407896245   -11.8424199982   -3.9921930388
 H  -0.7960310459   -9.4213649885   -3.5273874432
 H  -0.5517313967   -7.1058236784   -4.2770690469
 H  0.188537526   -0.597723768   -7.9760195687
 H  -0.6113307346   0.461629932   -10.0319092488
 H  -2.0731125145   0.432021812   -12.036489346
 H  -3.7516735759   -0.7247813457   -13.4288056304
 H  -4.6224774008   -2.9515133355   -12.753242788
 H  -3.8143471255   -4.025648423   -10.6805233956
 H  -2.3668081804   -3.9800344039   -8.6843227457
 H  -1.8041441137   -3.7766446529   -3.0960488738
 H  -3.1542524399   -3.979627941   -1.0669002543
 H  -2.4670056777   -2.8108125186   1.0220504704
 H  -0.4371681477   -1.4400196901   1.0551759128
