65

 N  1.1905388134   -0.4684331524   0.4205080385
 C  2.3257502778   -0.407943405   0.206609254
 C  3.7382735896   -0.348188461   -0.0254784847
 C  4.4308214634   0.8790419917   0.0276059817
 C  3.7567855933   2.1926527378   0.144221197
 C  4.349037236   3.1909118698   0.9665514151
 C  3.7770097694   4.4256355191   1.0814665977
 C  2.5923348075   4.7505973196   0.3691753853
 C  1.9797067197   6.0254472225   0.4621003796
 C  0.8427558737   6.3058488407   -0.2499970615
 C  0.2631580246   5.3259071464   -1.0900377764
 C  0.8322992395   4.0847583906   -1.1987477254
 C  2.0074892168   3.7642921497   -0.470699118
 C  2.6136835953   2.4871632194   -0.562138026
 N  5.7616751104   0.9161736633   0.0021308698
 C  6.4778127429   -0.1977673172   -0.1393112921
 C  7.9496325307   -0.0272687505   -0.1305895706
 C  8.8033220623   -0.9514122179   0.5309630244
 C  10.1571550741   -0.7595273141   0.5406832925
 C  10.7431527768   0.3540594538   -0.1141771736
 C  12.1444692841   0.5710537846   -0.1307709471
 C  12.6727087383   1.6615174141   -0.7702384586
 C  11.8270538442   2.5894655553   -1.4242396857
 C  10.4700162147   2.4071183226   -1.4238589064
 C  9.8931428138   1.2869075085   -0.7695164371
 C  8.494955755   1.0740483582   -0.7507470978
 C  5.8456979725   -1.4454502395   -0.3185960972
 C  6.6039148603   -2.6092792792   -0.6691786579
 N  7.2104678152   -3.5437710535   -0.9804150231
 C  4.4492157899   -1.5385623167   -0.2341058195
 C  3.7537014952   -2.8421144573   -0.3621018274
 C  4.0536397861   -3.8952253979   0.5052355627
 C  3.3990082718   -5.1116888044   0.384235847
 C  2.4359200431   -5.3168779853   -0.6095802951
 C  1.7419237877   -6.6221094691   -0.7406910873
 C  1.3987324895   -7.3685191992   0.3925083632
 C  0.7497617831   -8.590947626   0.2787349279
 C  0.4463668663   -9.0619832815   -0.9861370486
 F  -0.1833702886   -10.2480757435   -1.1056814197
 C  0.7670192693   -8.3575282507   -2.1327030228
 C  1.4151808209   -7.1365237496   -2.0006975346
 C  2.1455083957   -4.2581006863   -1.4767761003
 C  2.7891409504   -3.035987502   -1.3536495958
 H  5.2574054736   2.9512167191   1.5076792234
 H  4.2255700778   5.1796752909   1.7218512835
 H  2.4292577838   6.775397928   1.1068514113
 H  0.3806399291   7.2853897967   -0.1736774203
 H  -0.6370813938   5.5637787512   -1.6482428816
 H  0.392498519   3.3268760617   -1.8408781189
 H  2.1667743738   1.7568628062   -1.2290746803
 H  8.3784474026   -1.7965569035   1.0607771165
 H  10.8035607912   -1.4598087601   1.0617598032
 H  12.7901310469   -0.1431473648   0.3724526067
 H  13.7468845422   1.8195428469   -0.7788048218
 H  12.2620020417   3.4478946086   -1.9267186359
 H  9.8140571427   3.1146554589   -1.9232154771
 H  7.8467258168   1.7896131499   -1.2462090628
 H  4.7963268416   -3.7609906067   1.2852957838
 H  3.655959656   -5.9187062297   1.0625451926
 H  1.622769734   -6.9822806925   1.381506913
 H  0.473122216   -9.1704180879   1.1527723328
 H  0.5185458974   -8.7661803923   -3.1060939978
 H  1.6881079453   -6.587002239   -2.8956472396
 H  1.3928563222   -4.3827851115   -2.2484504451
 H  2.5472265644   -2.2308218382   -2.0401877314
