53

 N  1.2284792696   -0.3485574116   0.5366996617
 C  2.3536555731   -0.2946564246   0.2753221417
 C  3.7558537848   -0.2336666121   -0.0147457329
 C  4.4491679661   0.9919430927   0.0219477039
 C  3.7758801882   2.3033923926   0.19317117
 C  2.5836427657   2.6159725968   -0.4630792987
 C  2.0049252994   3.8685301451   -0.2995132104
 C  2.5987816911   4.8221261567   0.5198682761
 C  3.7878453328   4.4969389805   1.1569323752
 Br  4.6414419712   5.8296230857   2.3104357673
 C  4.3925371099   3.2630750864   1.0028814656
 N  5.7762798235   1.0335240356   -0.0694135955
 C  6.4835549794   -0.0790305764   -0.2507699963
 C  7.9557654512   0.1021502739   -0.3121279533
 C  8.4721799639   1.2113657587   -0.9871216363
 C  9.8428600262   1.417649554   -1.0482825081
 C  10.7194061266   0.5351666261   -0.4232505049
 C  10.1891745518   -0.5487956737   0.2588048664
 Br  11.403201957   -1.785265859   1.170818709
 C  8.826171226   -0.7859828127   0.3258638178
 C  5.8491275166   -1.3268203755   -0.4072772486
 C  6.5984212312   -2.4880529349   -0.7869311625
 N  7.2010189164   -3.4179007417   -1.1178594469
 C  4.4572619542   -1.4229201511   -0.2626506153
 C  3.7573115174   -2.7253116618   -0.3691430577
 C  4.1052561775   -3.7889076839   0.4674942614
 C  3.4451426017   -5.0046138899   0.3670197022
 C  2.4303025222   -5.1991325674   -0.5766390917
 C  1.7311259111   -6.5041825598   -0.6858027838
 C  1.448871401   -7.2623507882   0.4562798532
 C  0.7937217638   -8.4841710468   0.3543994937
 C  0.4097977612   -8.9718477205   -0.8913180486
 C  0.6856155573   -8.2274059773   -2.0344565819
 C  1.3394216725   -7.0048534399   -1.9327048604
 C  2.0930610761   -4.1301287164   -1.4143638076
 C  2.740765954   -2.9081702333   -1.3102966217
 H  2.1167746527   1.8968870631   -1.1261522272
 H  1.084185803   4.1102176939   -0.8199580187
 H  2.1430673048   5.796917009   0.6501043396
 H  5.3249916733   3.0263869706   1.5004077522
 H  7.7918682595   1.9039824956   -1.4692205527
 H  10.239305715   2.2732172278   -1.5850153052
 H  11.7899890353   0.6982973812   -0.4679978802
 H  8.4444480585   -1.6285408346   0.8892005878
 H  4.8886482192   -3.6639369501   1.2081623659
 H  3.7375054633   -5.8198478246   1.0207069293
 H  1.7256599957   -6.8832599234   1.4351851515
 H  0.5771682075   -9.0537210693   1.2532247262
 H  -0.1014638083   -9.9264337744   -0.9707192622
 H  0.3968886947   -8.6020712097   -3.0119166335
 H  1.566457098   -6.4428948035   -2.8333303415
 H  1.3007955808   -4.2468344702   -2.1465406117
 H  2.4620714555   -2.0953569082   -1.9734125218
