55

 N  1.7271980791   -0.4236310146   1.9727027482
 C  2.7094448643   -0.3117035004   1.3730313769
 C  3.9372656885   -0.1962409369   0.6429876843
 C  4.6399121052   1.0220191105   0.5571421844
 C  4.125585631   2.3033196058   1.1007350628
 C  2.7863672293   2.6791783108   0.978906383
 C  2.3570603763   3.9034648036   1.4766726672
 C  3.248839771   4.7659135649   2.1043282712
 C  4.577751113   4.3800961357   2.2076363565
 Br  5.8507913339   5.5845113884   3.0814004191
 C  5.0351588977   3.1735777263   1.7113725831
 N  5.8430211379   1.0772367144   -0.0094804311
 C  6.3976322664   -0.0010555909   -0.5581551239
 C  7.7528242421   0.1955973365   -1.1299564448
 C  8.0411447037   1.3956663343   -1.7858210762
 C  9.3040163828   1.618611426   -2.3150520258
 C  10.3047995521   0.659857296   -2.1846736388
 C  10.0073027963   -0.5166840389   -1.5152831593
 Br  11.4101112844   -1.8644968877   -1.2946825874
 C  8.7523601349   -0.7708618368   -0.9869851057
 C  5.7048682723   -1.2270475778   -0.5995197005
 C  6.2192736187   -2.3626338373   -1.3061968921
 N  6.6160333037   -3.2806188356   -1.8865997939
 C  4.4626745749   -1.341652748   0.034569586
 C  3.7272191674   -2.6394653757   0.0630218914
 C  3.9656477322   -3.5428251481   1.1147281106
 C  4.8881597094   -3.2756598749   2.1768157968
 C  5.0846404528   -4.180040118   3.1771415106
 C  4.3780801387   -5.4167527877   3.1944519756
 C  3.4922864561   -5.7091268775   2.2032601759
 C  3.2548989957   -4.7889333381   1.1348898155
 C  2.349082958   -5.0801291988   0.1170091319
 C  2.1109493765   -4.1884392162   -0.9267510648
 C  1.180530137   -4.4957435013   -1.9681343936
 C  0.9541589996   -3.6196443236   -2.9848915441
 C  1.6479282674   -2.3761100256   -3.0221957534
 C  2.542554056   -2.0443803323   -2.0491630802
 C  2.8109097824   -2.9365137   -0.9619360834
 H  2.0779565993   2.0366910931   0.4693802892
 H  1.3175193198   4.1948034116   1.3699786929
 H  2.9112056228   5.7182414206   2.4963476256
 H  6.0771825047   2.8902585755   1.7918885818
 H  7.2663163629   2.1472372538   -1.8831754602
 H  9.5184595922   2.5469327743   -2.8340128052
 H  11.2931163551   0.8351827057   -2.5936352488
 H  8.5639977381   -1.6902070651   -0.4469508044
 H  5.4361518501   -2.339654106   2.1833688927
 H  5.7881138608   -3.958559665   3.9738203775
 H  4.5520747431   -6.120426304   4.0023419751
 H  2.9454067849   -6.6476287423   2.2014186095
 H  1.8151575829   -6.0265122648   0.1375437933
 H  0.6602977545   -5.448328251   -1.92496091
 H  0.2466870683   -3.8608737789   -3.771938478
 H  1.4586882414   -1.6862352971   -3.8388073899
 H  3.0604444305   -1.0926908909   -2.096673573
