45

 C  1.021940932   0.1315157486   0.3229325199
 C  -0.1665407002   0.0940285759   0.1282556809
 C  -1.5799048137   0.0471321536   -0.1041867123
 C  -2.0886452256   -0.5981144818   -1.2378721931
 C  -3.4561937393   -0.6487355928   -1.4587368306
 C  -4.338084691   -0.0468511335   -0.5577075962
 C  -5.8030656286   -0.0924784019   -0.796094086
 C  -6.4962806982   -1.3085258546   -0.8682079647
 C  -5.7761426544   -2.5379110692   -0.7111732312
 N  -5.189183387   -3.5265110861   -0.5889311153
 C  -7.880945832   -1.3080655875   -1.1251738692
 C  -8.6898150735   -2.5502005404   -1.2225445027
 C  -8.5681529293   -3.5909305924   -0.3003758228
 C  -9.3704339555   -4.7201535099   -0.4138829606
 C  -10.2958230806   -4.8320761832   -1.4455375718
 C  -10.4080414995   -3.7837072999   -2.3475502128
 Br  -11.7086081297   -3.9187757363   -3.8051524203
 C  -9.6331936748   -2.6426338176   -2.2507163729
 N  -8.5484503535   -0.1715050269   -1.3110649464
 C  -7.9293665972   1.0039487853   -1.2261407056
 C  -8.7883584539   2.197253593   -1.4342807008
 C  -9.7486748076   2.1704492211   -2.4487701338
 C  -10.577867898   3.2632431765   -2.656463155
 C  -10.4782365349   4.3907329359   -1.8460768901
 C  -9.5340597212   4.3921382193   -0.8316460219
 Br  -9.3988345726   5.9551951299   0.3400066209
 C  -8.6845322867   3.3205988609   -0.6099857277
 C  -6.5455047867   1.0824384487   -0.978409109
 C  -5.8630938851   2.3424654572   -1.0074870071
 N  -5.3065951382   3.3550331403   -1.0512366351
 C  -3.8319675418   0.603876159   0.5704194446
 C  -2.46566264   0.6461449122   0.7996485126
 H  2.0777597639   0.165148858   0.4941801931
 H  -1.4075303705   -1.0589038856   -1.9449834851
 H  -3.8387990383   -1.1457317483   -2.3441272484
 H  -7.8706887988   -3.5142260125   0.5257838175
 H  -9.2799978984   -5.5215189371   0.3118171383
 H  -10.9169004068   -5.7158159612   -1.5356560508
 H  -9.7397707826   -1.8297451438   -2.958449648
 H  -9.8343499871   1.2919965004   -3.0781594065
 H  -11.3128081117   3.2425765389   -3.4543320731
 H  -11.1288343264   5.2427930783   -2.0053592892
 H  -7.9757760239   3.3460502455   0.2083129214
 H  -4.5108176962   1.0673638089   1.2791644592
 H  -2.0785063245   1.1441340551   1.681850388
