53

 C  -1.1734784012   -0.3376865138   -0.752403891
 O  -0.0358866334   0.5131045018   -0.7785632023
 C  0.1051492119   1.3590571096   -1.8188378987
 C  -0.780399808   1.4611698132   -2.8647745243
 C  -0.5342741664   2.3847214358   -3.901508948
 C  0.5703937599   3.1984768126   -3.899702301
 C  0.7627746535   4.1600278149   -5.0192060446
 C  0.4752516603   5.523321621   -4.8714368089
 C  0.071708244   6.0026354435   -3.5825736774
 N  -0.2404700177   6.3777417089   -2.5343201278
 C  0.6021431203   6.3879922381   -5.9751808308
 C  0.2579652776   7.8313051544   -5.9304023428
 C  1.0911449986   8.7436310235   -6.5835483266
 C  0.7901849729   10.0979355725   -6.5736222798
 C  -0.3534233903   10.5635903482   -5.9307597467
 C  -1.1788686966   9.6428954851   -5.3049691707
 Br  -2.8078653494   10.2738995699   -4.4202673875
 C  -0.8966903191   8.2867835724   -5.2886867574
 N  1.0721382596   5.9468534222   -7.1402159754
 C  1.3959386148   4.6672798829   -7.3092796383
 C  1.9231429021   4.3134052761   -8.6513938015
 C  1.3392153523   4.8967398505   -9.7791393578
 C  1.8174524998   4.6010156507   -11.047487598
 C  2.8947970495   3.7351450962   -11.2127851045
 C  3.4741035743   3.1804258901   -10.0824943483
 Br  5.0087659466   1.9824689537   -10.2914171064
 C  3.0105461635   3.4490862633   -8.8050714818
 C  1.2119372233   3.7300235174   -6.273601987
 C  1.4482869289   2.331309724   -6.4793556531
 N  1.6281951817   1.2014295837   -6.6466897255
 C  1.5169510817   3.10734356   -2.8290091073
 C  2.6949820794   3.8959862385   -2.7749567925
 C  3.5777735186   3.7772821473   -1.7320333946
 C  3.3317176057   2.8611148713   -0.6883621619
 C  2.2061314536   2.0782654552   -0.7141557512
 C  1.2786438083   2.1803596902   -1.7789095247
 H  -1.0862963017   -0.926257132   0.1612636613
 H  -1.186444811   -1.0084289019   -1.6180118712
 H  -2.1017699989   0.2426355458   -0.7246622124
 H  -1.6701383208   0.8467084076   -2.910552936
 H  -1.2495642104   2.4523460828   -4.7155747887
 H  1.9787798988   8.3834627606   -7.090904227
 H  1.4476124553   10.8035575814   -7.0706540027
 H  -0.5913022787   11.6209680574   -5.9261583943
 H  -1.5780298364   7.5933740016   -4.8122703355
 H  0.5044225979   5.5767477428   -9.6539072937
 H  1.3520198291   5.0469635212   -11.9202252338
 H  3.2715193545   3.5070265327   -12.2030618376
 H  3.5054309888   3.0190468515   -7.9431506732
 H  2.9016371187   4.5998807625   -3.5741879774
 H  4.4732547745   4.3907097315   -1.7108083167
 H  4.0366218515   2.7753632344   0.1326294706
 H  2.0105485282   1.3678574353   0.0800597445
