66

 N  1.805888796   -0.409260367   1.9982469237
 C  2.7767369638   -0.3114752258   1.3773779527
 C  4.0000280547   -0.1894022101   0.640786174
 C  4.6385824722   1.059209579   0.512524397
 C  4.0293112818   2.3362004076   0.96146019
 C  2.6836792473   2.6349138483   0.7393004051
 C  2.1642795874   3.8581151829   1.1453285733
 C  2.9714488704   4.7956023648   1.7802000266
 C  4.3083553056   4.4850369958   1.9844504844
 Br  5.4634029929   5.7957508091   2.8700906009
 C  4.8547053627   3.2810016339   1.5801752183
 N  5.862664149   1.1568120651   -0.0008985963
 C  6.4958992877   0.0802719339   -0.4604083692
 C  7.8634421371   0.3192956751   -0.9858932631
 C  8.1106002956   1.4780203868   -1.7267735654
 C  9.3824218051   1.7376385052   -2.2168116279
 C  10.4313913226   0.8588598242   -1.9617138392
 C  10.1730208711   -0.2755496544   -1.2083899508
 Br  11.6420183411   -1.5085929412   -0.8131300724
 C  8.9110232167   -0.5657076732   -0.7167338358
 C  5.8729212369   -1.1823857316   -0.4698881861
 C  6.4813532126   -2.2897362468   -1.1462968423
 N  6.9617839326   -3.1730844019   -1.7176898828
 C  4.6067622849   -1.3426604585   0.1166265708
 C  3.9428492494   -2.663527576   0.1796146718
 C  4.6068451894   -3.7576298188   0.7712684948
 C  4.0158105837   -5.0049816138   0.8596861104
 C  2.7349901198   -5.1632402369   0.3243654304
 C  2.053731726   -4.0766432686   -0.2746533732
 C  2.6587936933   -2.8269409333   -0.3394202755
 C  0.7709168146   -4.5843364639   -0.7122369291
 C  -0.3243511866   -4.0145351008   -1.3630866716
 C  -1.4256806071   -4.8103873348   -1.6416540807
 C  -1.4411029269   -6.1644820815   -1.2745282554
 C  -0.3646898653   -6.7527376256   -0.6255837546
 C  0.741294184   -5.9478775088   -0.3516232965
 N  1.935430221   -6.2859142268   0.2705110575
 C  2.2773422164   -7.6178776307   0.7343082685
 C  1.6328945293   -8.0083921139   2.050169059
 C  1.2172863878   -9.3250394372   2.2471444874
 C  0.6629698928   -9.719999133   3.4612496087
 C  0.5113242873   -8.7970439512   4.4912733372
 C  0.9187005902   -7.4794605714   4.299497845
 C  1.4774364833   -7.0880081969   3.0871775694
 H  2.0423217083   1.9297153248   0.2235052487
 H  1.1204829667   4.0894159087   0.9609677675
 H  2.5631716851   5.7471065891   2.1003785423
 H  5.9020949143   3.0557644635   1.737939045
 H  7.2973548734   2.1676626545   -1.9215543621
 H  9.5660071877   2.6322162279   -2.8026517294
 H  11.4258402072   1.0630670405   -2.3412189676
 H  8.7500025382   -1.4477859248   -0.1094100064
 H  5.5957271121   -3.6137257891   1.1943143998
 H  4.5376437706   -5.8255097093   1.3393437525
 H  2.1443450131   -1.9939737528   -0.8085481207
 H  -0.3126710814   -2.9660705041   -1.6461761989
 H  -2.2863535963   -4.3834734139   -2.1468741992
 H  -2.3157990607   -6.7671747775   -1.499864045
 H  -0.389094616   -7.798028295   -0.3371465347
 H  1.9945430208   -8.3360785928   -0.0407971555
 H  3.3662038888   -7.6669292127   0.8193691553
 H  1.327010827   -10.0468433497   1.4417602361
 H  0.3421362953   -10.7484514581   3.5983279659
 H  0.0742902358   -9.1010105433   5.4376760471
 H  0.8014038892   -6.752123606   5.0974615364
 H  1.7918656101   -6.0579587574   2.9469988338
