55

 N  1.165142839   -0.2775229112   0.4180850793
 C  2.2999899749   -0.2141215288   0.2054413744
 C  3.7125685507   -0.144718979   -0.026469164
 C  4.4013850687   1.081013672   0.0608638969
 C  3.7191907863   2.3874207288   0.2330450836
 C  2.5531062252   2.7121407832   -0.4629387754
 C  1.9653993975   3.9600119265   -0.2953614984
 C  2.5245401344   4.8967412566   0.5668519433
 C  3.688543079   4.5597961372   1.2429542411
 Br  4.4951851134   5.869138904   2.4553160478
 C  4.3012779041   3.3302065811   1.0869081926
 N  5.7308718066   1.1259237722   0.0217354698
 C  6.4475364992   0.018760597   -0.1547557826
 C  7.9204164081   0.2029259225   -0.1531328204
 C  8.4614733057   1.3294647366   -0.7782941592
 C  9.8331428452   1.538341338   -0.7786832726
 C  10.6853057867   0.6406591308   -0.1416644838
 C  10.1300529047   -0.4609103696   0.4903971429
 Br  11.3086501139   -1.719601019   1.4177205257
 C  8.7659467687   -0.7006191397   0.4966215602
 C  5.822555918   -1.2267988816   -0.3604750498
 C  6.5878208298   -2.3792231393   -0.7349825233
 N  7.201922476   -3.302665987   -1.0626021685
 C  4.4268362255   -1.327140875   -0.2684658198
 C  3.735445079   -2.6307123087   -0.4172798116
 C  4.0574653565   -3.698269783   0.4258563918
 C  3.408222582   -4.9151294127   0.2951325509
 C  2.4298025283   -5.0933520768   -0.6926339935
 C  1.7633921584   -6.3494704581   -0.8308196242
 C  1.2007271557   -7.4140099487   -0.9448582055
 C  0.5362327264   -8.6732179275   -1.0779222722
 C  0.8736556022   -9.7431031107   -0.2365740622
 C  0.2264752249   -10.9642099367   -0.3688936688
 C  -0.7606011092   -11.1332917107   -1.3366626337
 C  -1.1005022734   -10.0746147033   -2.1751849281
 C  -0.4585527329   -8.8499311165   -2.0502411679
 C  2.1140413124   -4.023635161   -1.5416557925
 C  2.7564932245   -2.8042765569   -1.4001444179
 H  2.1149919112   2.0066396441   -1.1594359737
 H  1.0653573161   4.2115293469   -0.8464312563
 H  2.0621048028   5.8679567341   0.6998261706
 H  5.2134712367   3.0838489238   1.6161717975
 H  7.7998993598   2.0337584728   -1.2694967442
 H  10.2494375905   2.4075395496   -1.2770888112
 H  11.7565394076   0.8055510569   -0.1384001068
 H  8.3631314121   -1.5575925549   1.0224058941
 H  4.8064866372   -3.5717765851   1.2006673547
 H  3.654917753   -5.7356580473   0.9600058604
 H  1.6432209638   -9.6075695443   0.5163365067
 H  0.4936991713   -11.7874217209   0.2863917895
 H  -1.2647363614   -12.0895184101   -1.4371730705
 H  -1.8696173608   -10.2032354405   -2.9304371825
 H  -0.7207798763   -8.0228702952   -2.7019052674
 H  1.3630949999   -4.1547318815   -2.3130877939
 H  2.5086932405   -1.9870376933   -2.0696925711
