57

 N  1.2726297693   -0.2570920299   0.6001415997
 C  2.3963321927   -0.1826935776   0.3373083017
 C  3.7971355948   -0.0945690834   0.0470547491
 C  4.4652406358   1.1447444301   0.0891988623
 C  3.7639178215   2.4414728313   0.259477577
 C  2.5732830801   2.7320783655   -0.4097501151
 C  1.9673969843   3.9720467067   -0.2487077227
 C  2.5324401239   4.934551454   0.5807302539
 C  3.7204818235   4.6312266728   1.2303383748
 Br  4.5350976389   5.9766308861   2.3970068428
 C  4.3516939742   3.4103080772   1.0794955113
 N  5.7913125303   1.2138152699   0.0025817442
 C  6.521427002   0.1168713972   -0.184297924
 C  7.9896843485   0.3280822733   -0.2367675514
 C  8.4861878029   1.464751384   -0.8805188725
 C  9.8524651376   1.7008235565   -0.9296880026
 C  10.7444147923   0.8206467539   -0.3234392911
 C  10.2337643485   -0.2915912337   0.3272539398
 Br  11.4695483664   -1.5255165306   1.2131868944
 C  8.8756934035   -0.5585644652   0.3814990391
 C  5.9123090417   -1.1417362697   -0.3538491715
 C  6.6840706291   -2.2820117858   -0.7512835217
 N  7.3036785421   -3.1947245495   -1.0982051255
 C  4.5223792593   -1.2681600399   -0.2084428891
 C  3.8490762219   -2.5828507276   -0.3222139543
 C  4.2337292191   -3.6519410735   0.4954232284
 C  3.6020437765   -4.8797158567   0.394135289
 C  2.5735608837   -5.0879873475   -0.5367919664
 C  1.8707968175   -6.3665255337   -0.6985617922
 C  2.1066740405   -7.4932990426   -0.0114244183
 C  1.40844304   -8.7763079776   -0.1680262047
 C  1.8209951824   -9.8595659465   0.6187918965
 C  1.202935399   -11.1004371762   0.5153754204
 C  0.1543427706   -11.283336888   -0.3798837995
 C  -0.2691407817   -10.2145699809   -1.1684160654
 C  0.348328786   -8.975989543   -1.0649280907
 C  2.201425966   -4.0123949811   -1.3536935443
 C  2.8208393945   -2.7764428198   -1.2476632963
 H  2.1293415646   2.0052256322   -1.0803107455
 H  1.0478068355   4.1967864722   -0.7787003743
 H  2.0555621166   5.8994278574   0.7091011259
 H  5.2831304915   3.1911759599   1.5868281562
 H  7.7935341074   2.1554938455   -1.3473707456
 H  10.2332784751   2.5780254198   -1.4421890134
 H  11.8115004131   1.0072662766   -0.3579328159
 H  8.5101074964   -1.42368725   0.9205297107
 H  5.0203853129   -3.5144967864   1.2305722446
 H  3.9160778818   -5.6827386581   1.0519018103
 H  1.0942696247   -6.3554397863   -1.4599425836
 H  2.8880333905   -7.5021656977   0.7455807893
 H  2.6399421555   -9.7211072479   1.3195554114
 H  1.5416280693   -11.9247368549   1.1359267743
 H  -0.3320083809   -12.250429445   -0.464025692
 H  -1.0882239832   -10.3478864243   -1.8689587918
 H  -0.000456176   -8.1583214788   -1.6874042524
 H  1.4115637977   -4.1512199714   -2.0859791751
 H  2.5168812484   -1.9647774613   -1.9010580379
