59

 N  1.2534202348   0.0888666797   1.3489975496
 C  2.3165177272   0.087573133   0.8940202774
 C  3.6467401787   0.0781903881   0.3609499256
 C  4.4130228116   1.2590495721   0.3092493209
 C  3.8685732771   2.5997792484   0.6386399339
 C  2.5999609045   3.0094898875   0.2235954526
 C  2.1459985623   4.2874522722   0.5260387771
 C  2.9415787406   5.170017391   1.2481971191
 C  4.2023248494   4.7482039207   1.6459570357
 Br  5.338125854   5.9787485127   2.661675884
 C  4.6850134399   3.4874569351   1.3475756055
 N  5.7035378624   1.226624948   -0.0145172559
 C  6.295348662   0.0833929837   -0.3509730259
 C  7.7438416876   0.1798637514   -0.6602933634
 C  8.2114469712   1.2877190866   -1.3720571135
 C  9.5628509783   1.4156047518   -1.659184982
 C  10.4718050852   0.4536983323   -1.2274297016
 C  9.993252641   -0.6290747255   -0.506392269
 Br  11.2576794357   -1.9799419299   0.1341380416
 C  8.6485659709   -0.7877748673   -0.2148694708
 C  5.564000876   -1.1177422278   -0.4302533404
 C  6.1584862257   -2.3042140349   -0.9715052838
 N  6.6311304013   -3.2532943556   -1.4331668519
 C  4.2166157891   -1.1388981742   -0.0410563041
 C  3.4306311586   -2.3958108168   -0.0512745766
 C  3.8611249134   -3.5039596755   0.6819502794
 C  3.1205196953   -4.6775427433   0.6756285128
 C  1.9428981582   -4.7824416351   -0.0710178136
 C  1.1404557518   -6.0350569898   -0.0267171727
 C  0.7604643557   -6.5300304677   1.2012009645
 C  -0.0305393294   -7.6931634514   1.3185715075
 C  -0.4405692038   -8.3594116467   0.1965369616
 C  -0.0580810451   -7.9028823617   -1.0909232628
 C  -0.4573227723   -8.6031654943   -2.2594777284
 C  -0.0637808928   -8.1833448867   -3.5017497438
 C  0.760593415   -7.0427696812   -3.6294240958
 C  1.1566653938   -6.3407603953   -2.520487119
 C  0.7493289916   -6.7345017645   -1.2166652037
 C  1.5201089441   -3.6681670926   -0.8043639377
 C  2.2489786386   -2.4878326792   -0.7916111357
 H  1.9720464658   2.3472701455   -0.3609775714
 H  1.1641117179   4.6049953074   0.1912559967
 H  2.5834923574   6.1646592585   1.4875576093
 H  5.6747700857   3.1743452572   1.6560717068
 H  7.5071347651   2.0418785405   -1.7039441624
 H  9.9191111374   2.2714617833   -2.2229979301
 H  11.5281384491   0.5557682725   -1.4480520003
 H  8.3123923368   -1.63208416   0.3742182122
 H  4.770355533   -3.4454553791   1.271817052
 H  3.4654925323   -5.5295678361   1.2525063174
 H  1.0561062648   -5.9989469445   2.1008435634
 H  -0.3182310071   -8.0447553583   2.3045314541
 H  -1.0582889386   -9.2499328354   0.2716929553
 H  -1.0789525911   -9.4868691462   -2.1444075022
 H  -0.3737043718   -8.727683548   -4.3885519006
 H  1.0873798115   -6.7238465606   -4.6145632685
 H  1.8007150044   -5.4773278922   -2.6384511976
 H  0.6022250077   -3.718763215   -1.3806295938
 H  1.9026301008   -1.6369953868   -1.3694921368
