63

 N  1.4748824473   -0.550381243   1.3816840875
 C  2.5077844907   -0.4162910129   0.8794015297
 C  3.8020536348   -0.2630761589   0.2834002629
 C  4.4809458781   0.9703410427   0.3323921513
 C  3.8685464335   2.2184073809   0.8513968701
 C  2.5521149364   2.578299987   0.5568909278
 C  2.0314178563   3.7733717437   1.0380017419
 C  2.807967067   4.6212769292   1.82000979
 C  4.1167394302   4.2512204059   2.0953600329
 Br  5.2286950661   5.4355208799   3.189145631
 C  4.6645429719   3.0741014372   1.6202154347
 N  5.7471182452   1.0728983134   -0.0643248636
 C  6.3934787384   0.0246558923   -0.5681805629
 C  7.8082230765   0.2667826598   -0.9456196981
 C  8.1520388465   1.4855694414   -1.5364514114
 C  9.4698310162   1.7482829106   -1.8820491466
 C  10.4680495747   0.8117811601   -1.627916032
 C  10.1123720432   -0.383596492   -1.0230822131
 Br  11.5047918294   -1.7017028657   -0.6256760972
 C  8.8033647707   -0.6775111227   -0.6792213424
 C  5.7435303788   -1.2119775053   -0.7481841446
 C  6.3807646409   -2.281379155   -1.4582804543
 N  6.8828664532   -3.1360316646   -2.0538357815
 C  4.4284518532   -1.3788242481   -0.2905011754
 C  3.7314902688   -2.6831243256   -0.4049007738
 C  4.2780506669   -3.8282880489   0.1798553933
 C  3.628953937   -5.0495188953   0.0746470505
 C  2.4187027385   -5.1396234364   -0.6130175583
 N  1.7524248799   -6.3845567416   -0.7155213697
 C  1.4103046226   -7.2167251878   0.3511545664
 C  1.592481968   -7.024443455   1.7207568463
 C  1.1322658833   -8.0144507974   2.5776243642
 C  0.5005257926   -9.1687498883   2.0926957426
 C  0.3109372768   -9.3481308706   0.7307039742
 C  0.7644836779   -8.3653736872   -0.1507169595
 C  0.7171712605   -8.2232047373   -1.5909087766
 C  0.2241542641   -9.0299743531   -2.6177620867
 C  0.3553766045   -8.6022984268   -3.9304149154
 C  0.979322028   -7.3807765969   -4.2222586327
 C  1.4760038469   -6.5612181965   -3.2183376373
 C  1.3310697394   -6.9917123925   -1.8993628331
 C  1.8668041771   -3.9999530444   -1.1981237108
 C  2.5215597883   -2.7812961992   -1.0965290857
 H  1.9370250526   1.9453178774   -0.0720315222
 H  1.0113481491   4.0536659333   0.7973724306
 H  2.3984560759   5.5508947383   2.1981659736
 H  5.6899827449   2.8013154091   1.8366923296
 H  7.3782053176   2.2198981454   -1.7284306966
 H  9.7296066073   2.6906974614   -2.3527721414
 H  11.498125022   1.0189176697   -1.8939793595
 H  8.56406524   -1.611027437   -0.1853495531
 H  5.213810218   -3.7671568845   0.7256860909
 H  4.0657206949   -5.9367150463   0.5193111599
 H  2.0732698982   -6.1335016497   2.1085797625
 H  1.264331147   -7.8880311193   3.6479763497
 H  0.1548093518   -9.9241722666   2.7913094966
 H  -0.1863961746   -10.2365395383   0.3525385949
 H  -0.2505049022   -9.9797268189   -2.3891486361
 H  -0.0232057398   -9.217841574   -4.7403809614
 H  1.079254557   -7.0663499695   -5.2567739272
 H  1.9619116868   -5.6220658384   -3.4572159351
 H  0.920644801   -4.0659593769   -1.7236184936
 H  2.0883951524   -1.9020791504   -1.5620500968
