58

 C  -0.0767218047   0.3563381239   -0.1296723409
 N  0.8446714594   -0.6834061715   -0.5659191377
 C  1.5280579931   -1.4255518108   0.4400609319
 C  1.3028769926   -2.7945136053   0.6016328419
 C  1.9588615881   -3.4964802729   1.6066051518
 C  2.8289003742   -2.8384408412   2.4717287529
 C  3.0459202656   -1.4721647464   2.3195975981
 C  2.4062971637   -0.7693784954   1.3041366997
 C  0.8673826523   -1.0627314854   -1.8944176639
 C  1.8482049731   -1.946223559   -2.3913272406
 C  1.8758199674   -2.3016315488   -3.7254589946
 C  0.9474068583   -1.7808964339   -4.636431812
 C  0.9842070221   -2.1633612117   -6.0641680673
 C  0.8903769766   -3.5055415639   -6.4696089476
 C  0.7848465102   -4.5331670172   -5.4765527753
 N  0.7032168068   -5.365462622   -4.6777650471
 C  0.8874986631   -3.8288267419   -7.8394794576
 C  0.7266521866   -5.2126936213   -8.3561298641
 C  1.5330714823   -5.6311510212   -9.4178820984
 C  1.3977904529   -6.9100398733   -9.938751886
 C  0.4453044387   -7.7857227963   -9.4251563798
 C  -0.3600619854   -7.3472265836   -8.3860015309
 Br  -1.7275824959   -8.5520029221   -7.6690135626
 C  -0.2386667575   -6.080449685   -7.8385895448
 N  1.0527822329   -2.8911202056   -8.7698509332
 C  1.1865290144   -1.6119728285   -8.4273490517
 C  1.3923472961   -0.6710601484   -9.5586991364
 C  0.6274612013   -0.8341627629   -10.7165045085
 C  0.8067993335   0.0145084313   -11.7994693738
 C  1.7637073985   1.0245238652   -11.7551393863
 C  2.5284756854   1.1579720672   -10.6070739441
 Br  3.9026792809   2.5514475503   -10.5372475343
 C  2.3618269089   0.3337309784   -9.5061283054
 C  1.1147732236   -1.2040261017   -7.0822661476
 C  1.1843858455   0.1850237887   -6.7367409253
 N  1.2364432744   1.3076778174   -6.463973245
 C  -0.0140139241   -0.8906816447   -4.1531792549
 C  -0.0641953817   -0.5419164409   -2.8128788385
 H  0.1315047841   0.5975848983   0.9120159223
 H  -1.1232250556   0.032053769   -0.2032797159
 H  0.0480603319   1.2657056807   -0.7255247406
 H  0.6120283278   -3.3053449206   -0.0615720726
 H  1.77707586   -4.5608662797   1.72164879
 H  3.3339888293   -3.3875465346   3.2603565779
 H  3.7252085554   -0.9500087117   2.9867038074
 H  2.585990968   0.2934939519   1.17392994
 H  2.6020516317   -2.3470209763   -1.7251440264
 H  2.6545827197   -2.9743932169   -4.0709569455
 H  2.2702148813   -4.9492042188   -9.8261155631
 H  2.0360257036   -7.2338786568   -10.7542251362
 H  0.3363648298   -8.7833186969   -9.8346874696
 H  -0.9016536797   -5.7630347028   -7.0435762341
 H  -0.1123849889   -1.625459402   -10.757703162
 H  0.2004955876   -0.1076670456   -12.6909333658
 H  1.907503182   1.6849258545   -12.6023590286
 H  2.9940546435   0.4499908409   -8.6347107815
 H  -0.7597129815   -0.4804200505   -4.8271348368
 H  -0.843947303   0.1320105584   -2.482466999
