71

 C  4.4344412602   -2.4869011801   -3.3381045251
 C  3.2456051647   -1.7969274803   -3.9522819004
 C  2.5286115358   -2.3831810988   -4.9965051797
 C  1.4522874704   -1.7333249317   -5.5891384665
 C  1.0527132154   -0.4771230519   -5.1338153277
 N  -0.0727191652   0.1734265861   -5.7193754396
 C  -1.2812907901   -0.5714568042   -5.8508661113
 C  -1.7991105026   -1.2672050155   -4.7591291479
 C  -2.9639459917   -2.0142546102   -4.8931592511
 C  -3.6496261222   -2.0788262586   -6.1067264293
 C  -4.9018148634   -2.9016159693   -6.2542233597
 C  -3.1240405157   -1.370549699   -7.190891628
 C  -1.9517570395   -0.6359912348   -7.0744067994
 C  0.0059776092   1.5002326183   -6.1507980013
 C  1.2342431565   2.0638173448   -6.533761296
 C  1.3067371589   3.3757446038   -6.9672254832
 C  0.1643896371   4.18122853   -7.0286557238
 C  0.2445268107   5.5812594664   -7.4925360381
 C  0.8416891736   5.9181746463   -8.7190932916
 C  1.2637199707   4.8756969123   -9.607175931
 N  1.5783835813   4.0370875945   -10.3388503165
 C  0.9454192518   7.2694398515   -9.1014131434
 C  1.6438968583   7.7155630477   -10.3331271702
 C  2.8674408158   7.1716253772   -10.7295173025
 C  3.5045718893   7.6445091875   -11.8701908252
 C  2.9332246487   8.6570214092   -12.6330515639
 C  1.721198707   9.1910262261   -12.2194397892
 Br  0.9034788792   10.6215268374   -13.2779451418
 C  1.0711642005   8.7488914784   -11.0819990773
 N  0.3837261462   8.2347992127   -8.3776766786
 C  -0.2388149093   7.9541934306   -7.2352701581
 C  -0.8444173909   9.1151704261   -6.5362273439
 C  -0.1625994238   10.3350064643   -6.5324558648
 C  -0.712314348   11.442453644   -5.9027808647
 C  -1.9558870465   11.3587301458   -5.2828026719
 C  -2.6266203792   10.1461433672   -5.3118815155
 Br  -4.3888713116   10.0137486541   -4.4684966083
 C  -2.09704973   9.0220490691   -5.9236083978
 C  -0.274146921   6.6406724023   -6.7289551061
 C  -0.7557213597   6.383350315   -5.4040927706
 N  -1.1168852415   6.1854156452   -4.3233202055
 C  -1.0584638804   3.6222223437   -6.6413885095
 C  -1.1409871721   2.3085998921   -6.214790444
 C  1.751176633   0.1139677151   -4.078951626
 C  2.836102871   -0.5373492801   -3.5071274921
 H  4.3819307846   -3.5707205239   -3.4762894587
 H  4.5050352652   -2.2809528574   -2.2655949715
 H  5.3703412268   -2.1435428189   -3.7957835956
 H  2.8216046106   -3.3640833364   -5.361107788
 H  0.9143324355   -2.2038296571   -6.405972795
 H  -1.2888353414   -1.2207719503   -3.8023360463
 H  -3.3531890151   -2.548708627   -4.0306988871
 H  -4.6904443123   -3.8589195043   -6.746051847
 H  -5.3486985599   -3.1240400605   -5.2810247332
 H  -5.6497708179   -2.3849181921   -6.8639345408
 H  -3.6347122844   -1.4049808051   -8.1497685335
 H  -1.5541155219   -0.1054913446   -7.9337577458
 H  2.1377129991   1.4671753903   -6.4988396968
 H  2.2724938981   3.7812613017   -7.251383414
 H  3.3428953862   6.3989266641   -10.1361860816
 H  4.4603293186   7.2261508075   -12.1676902898
 H  3.4293202497   9.021561171   -13.5250374353
 H  0.1299713469   9.1820935269   -10.7668486875
 H  0.8032620196   10.4050029768   -7.0194198842
 H  -0.1728289922   12.3837407172   -5.8915489463
 H  -2.3877706463   12.224436827   -4.7941609039
 H  -2.660398765   8.0977050046   -5.9498626278
 H  -1.9652920928   4.217168683   -6.6853113453
 H  -2.1034961043   1.9065032198   -5.922507217
 H  1.4395474949   1.0841742962   -3.7053776406
 H  3.3665328767   -0.062818739   -2.6856949694
