53

 N  1.315319301   -0.1943333133   0.5942550155
 C  2.4411851575   -0.1372292679   0.3365904336
 C  3.844013864   -0.073686092   0.0499185518
 C  4.5361248866   1.1524435441   0.0906935108
 C  3.8624583713   2.4626204983   0.2695629386
 C  2.6685332902   2.7785058791   -0.3818717553
 C  2.089892642   4.030011786   -0.2096788969
 C  2.6857475509   4.9793704902   0.6131996822
 C  3.8767180925   4.6510384416   1.2450816235
 Br  4.7348178803   5.9779668248   2.4018566214
 C  4.4808742115   3.4180108027   1.0829819375
 N  5.8631606067   1.195745173   -0.0018235694
 C  6.5717949457   0.0846768802   -0.1865334748
 C  8.0436387756   0.268405485   -0.2503127686
 C  8.5569985977   1.3804965963   -0.9229484591
 C  9.9272714205   1.589007318   -0.9863745952
 C  10.8064169298   0.705940052   -0.3658217725
 C  10.2791347335   -0.3806518517   0.314290773
 Br  11.4967877656   -1.6173149801   1.2206982703
 C  8.9166901593   -0.6201964247   0.383390829
 C  5.9389243654   -1.1638218984   -0.3435746029
 C  6.6892287595   -2.3242020051   -0.7238202673
 N  7.2917104726   -3.2538188661   -1.0556066202
 C  4.5472501508   -1.2616925271   -0.1987491723
 C  3.849681468   -2.5655281034   -0.3037363964
 C  4.1961706119   -3.6245998505   0.5390859303
 C  3.5383465013   -4.8417671437   0.4421180802
 C  2.5259241932   -5.0414757049   -0.5030325422
 C  1.8272223103   -6.3467164922   -0.6058349581
 C  1.5448316925   -7.0996241974   0.540111377
 C  0.8917823701   -8.3224151882   0.453811649
 C  0.5226955238   -8.7877125064   -0.7959887577
 F  -0.1106799051   -9.9738902759   -0.8883594502
 C  0.7820148644   -8.0761396366   -1.9540987224
 C  1.4351466141   -6.8547511736   -1.8499760542
 C  2.190471079   -3.9771933138   -1.3474785767
 C  2.837157138   -2.7542993503   -1.2478918197
 H  2.2001952078   2.0630442   -1.0478006335
 H  1.1676954496   4.2743125836   -0.7263128794
 H  2.2302805917   5.9533640021   0.7500498551
 H  5.4144786223   3.1785053586   1.5768890359
 H  7.8746744586   2.0737420455   -1.4013065987
 H  10.3213044946   2.4467246794   -1.5214539359
 H  11.8767622388   0.8703059539   -0.4122468196
 H  8.5373445205   -1.465220406   0.9447473582
 H  4.9767349801   -3.4949701685   1.2819151957
 H  3.8305353512   -5.6534588261   1.1003303891
 H  1.819790177   -6.7182217942   1.5180489657
 H  0.6624600759   -8.9069087247   1.338104753
 H  0.48357235   -8.4799606974   -2.9153969831
 H  1.6598739911   -6.3000713618   -2.7550597316
 H  1.4002196251   -4.0978899809   -2.0811685904
 H  2.5602104736   -1.9451264713   -1.916153372
