55

 N  1.7049880017   -0.3118979909   1.800860006
 C  2.6951746544   -0.199812818   1.2141997118
 C  3.9323752132   -0.0857095685   0.5000431395
 C  4.6360234173   1.13249247   0.4252174598
 C  4.1111849836   2.4114283382   0.9631751739
 C  2.7764892366   2.7901276118   0.7971644532
 C  2.3321619249   4.0125039573   1.2893665739
 C  3.2029702097   4.866547168   1.9546970102
 C  4.5223853566   4.4723294547   2.0993647267
 F  5.377817916   5.2928744945   2.7397704103
 C  4.9998302561   3.2725328552   1.612478421
 N  5.8467459551   1.1892529798   -0.125277476
 C  6.4072645616   0.1108900211   -0.6683799708
 C  7.7714439648   0.3034780859   -1.219035243
 C  8.0662306271   1.4937553557   -1.89094037
 C  9.338568955   1.711765967   -2.4025727443
 C  10.3391917659   0.7598100387   -2.2378113867
 C  10.0285754337   -0.4021938497   -1.5551713181
 F  10.9926637999   -1.3247049175   -1.370225886
 C  8.7700229211   -0.6570235421   -1.0435821952
 C  5.7135146665   -1.11427025   -0.7224425098
 C  6.2372777165   -2.246619448   -1.4277626439
 N  6.6406943957   -3.1621239242   -2.0076938362
 C  4.46384444   -1.2301542211   -0.10442517
 C  3.7271367958   -2.527911193   -0.0871617107
 C  3.9845071113   -3.4510309629   0.9425552429
 C  4.9275878297   -3.2061761152   1.9917514044
 C  5.144206258   -4.1308847777   2.9685808354
 C  4.4371848243   -5.3669858437   2.9754120183
 C  3.5302830421   -5.6377393043   1.9978160905
 C  3.2724190007   -4.6963425854   0.9532422556
 C  2.3451483003   -4.9664703437   -0.0504486002
 C  2.0880991328   -4.0558089344   -1.0725834327
 C  1.1350114036   -4.34258758   -2.0989411263
 C  0.8904861082   -3.4492359511   -3.0957483105
 C  1.5896874452   -2.209078435   -3.128035741
 C  2.5057677647   -1.8967437656   -2.1690886716
 C  2.7910846888   -2.8055363384   -1.100057106
 H  2.0871881375   2.1501589278   0.2585980578
 H  1.29726488   4.3055054774   1.1472263706
 H  2.8779258299   5.8220028716   2.3517742758
 H  6.0424795267   3.0083796067   1.743545286
 H  7.2902726629   2.2401238008   -2.0154026998
 H  9.556835541   2.6322560687   -2.9339003496
 H  11.3423682605   0.9088790379   -2.6218076462
 H  8.6002899875   -1.5759721617   -0.4948936678
 H  5.4759925655   -2.2706208798   2.0075216712
 H  5.8643654753   -3.9260048699   3.7547466844
 H  4.6272039432   -6.0875168541   3.7646640595
 H  2.9816437047   -6.5752048135   1.9890497969
 H  1.8088503534   -5.9116583225   -0.035658656
 H  0.6118665483   -5.2937672183   -2.0601509297
 H  0.1648445055   -3.6742308132   -3.8709878165
 H  1.3878394744   -1.5055430454   -3.9298923331
 H  3.0273985253   -0.94703295   -2.2149315879
