49

 N  1.1500428729   0.2509267852   1.225093146
 C  2.2430232553   0.1931405589   0.8513813732
 C  3.6089566381   0.1223735979   0.4227814337
 C  4.3610532951   1.2947289117   0.2084515386
 C  3.7744863357   2.6570568647   0.2407957693
 C  2.5367461616   2.9425372307   -0.3410459608
 C  2.0384523004   4.240612254   -0.3196546596
 C  2.7577245717   5.2651897156   0.2831513061
 C  3.9852036791   4.9587516503   0.8457861209
 F  4.6944695068   5.9437480495   1.430606312
 C  4.5149898503   3.6845820435   0.8311765053
 N  5.6725514955   1.2382143923   -0.0101043214
 C  6.3040301466   0.0691886567   -0.0881144771
 C  7.7698502077   0.1453013841   -0.3047525245
 C  8.2770046837   1.1270430104   -1.1615398093
 C  9.6456230934   1.2348838143   -1.3701299154
 C  10.5293420279   0.3819358102   -0.7173617798
 C  10.0054655519   -0.5700722993   0.1382799255
 F  10.8497228175   -1.3903281745   0.7934344887
 C  8.6486097763   -0.7128145706   0.3597256841
 C  5.5958267048   -1.1448152807   0.0012053549
 C  6.2398402302   -2.3949387297   -0.2734948702
 N  6.7472695714   -3.4046302462   -0.5197049327
 C  4.2231122587   -1.1310835321   0.2888730534
 C  3.4553366094   -2.3904344618   0.4442952261
 C  3.8539832463   -3.3507839131   1.4137792011
 C  3.1521389222   -4.5143907849   1.5612260568
 C  2.025488558   -4.7965726882   0.7460929127
 C  1.2856920489   -5.9999379565   0.8712778314
 C  0.2044928154   -6.2398054921   0.0647437033
 C  -0.1909973615   -5.2889595654   -0.9059587446
 C  0.5035350966   -4.1174647259   -1.0495456963
 C  1.6269799346   -3.8407555119   -0.227812917
 C  2.3617254962   -2.6363639699   -0.3519112588
 H  1.9714031102   2.1633320948   -0.8386007684
 H  1.0815675493   4.4571167147   -0.7828442735
 H  2.3871278283   6.2838144663   0.3170350907
 H  5.4835259635   3.4930788644   1.2774110551
 H  7.5914790395   1.7973926718   -1.6667807462
 H  10.0311728333   1.9908760536   -2.0462172378
 H  11.6025830833   0.4495219264   -0.858083301
 H  8.3057482857   -1.4627159367   1.0625941841
 H  4.708435971   -3.1445106615   2.0500144945
 H  3.451328291   -5.24105111   2.3109167205
 H  1.5933636017   -6.7270375004   1.6174550181
 H  -0.3558083868   -7.1641957081   0.1666832305
 H  -1.0499299003   -5.4943207679   -1.5373530832
 H  0.2057053791   -3.382751385   -1.7922264022
 H  2.0557349523   -1.9152825496   -1.1042390568
