53

 N  1.2889876849   0.1478356777   1.1400821475
 C  2.3798836524   0.0973754748   0.7589010462
 C  3.7391511179   0.0280103183   0.3095073099
 C  4.5005413726   1.2004496093   0.1361748442
 C  3.930222918   2.5660058389   0.243894429
 C  2.6944886521   2.8967562909   -0.3179166908
 C  2.2118032351   4.1976184558   -0.225219575
 C  2.9448207998   5.1797144814   0.4294433973
 C  4.1700886941   4.8291604873   0.9706457271
 F  4.8925648173   5.7730064776   1.605002396
 C  4.6848337568   3.5514735016   0.8857256997
 N  5.8071117372   1.1405316204   -0.1099257002
 C  6.4209543081   -0.0307446055   -0.2588261608
 C  7.8830758617   0.03741934   -0.5001442381
 C  8.3869506544   1.0498769146   -1.3222338886
 C  9.7528124352   1.1497184068   -1.5517934284
 C  10.6369355166   0.2578605969   -0.9538421824
 C  10.1164627972   -0.7244626892   -0.1309477482
 F  10.9619232334   -1.5829956157   0.4716398278
 C  8.7621269195   -0.8599615906   0.109625209
 C  5.6999083692   -1.2402653309   -0.2160226408
 C  6.3261362596   -2.4788607877   -0.5729372447
 N  6.823630737   -3.474052135   -0.8884997856
 C  4.3350173213   -1.2256940925   0.1054667025
 C  3.5519493494   -2.4794305298   0.2291026498
 C  3.9693047008   -3.4895166224   1.0989719377
 C  3.2177830286   -4.6516783978   1.2108203322
 C  2.0582664079   -4.8138744423   0.4632957948
 C  1.6247736444   -3.8137096567   -0.4128203777
 C  0.376956491   -3.9730575687   -1.2017977371
 C  -0.4734895329   -2.8825843197   -1.4150935633
 C  -1.6444607154   -3.0287000011   -2.1493848325
 C  -1.9869172238   -4.2676590963   -2.6823806779
 C  -1.1500938762   -5.3597742407   -2.4742576583
 C  0.0212268517   -5.2140459863   -1.7402366268
 C  2.3874924769   -2.6492971699   -0.5205953748
 H  2.1185815629   2.1522423462   -0.8552971213
 H  1.2564730651   4.4500259034   -0.6731728546
 H  2.5863577939   6.1992799671   0.5190493278
 H  5.6522758162   3.3247511451   1.3177809253
 H  7.7007129563   1.7499944503   -1.7844105502
 H  10.1358579   1.930164401   -2.2009378193
 H  11.7081000251   0.3186786448   -1.1119832078
 H  8.4213588933   -1.6352593984   0.7855780414
 H  4.8641579846   -3.3583544784   1.698469574
 H  3.532126534   -5.4321285512   1.89634012
 H  1.4701600225   -5.7189131454   0.5770251143
 H  -0.2274194109   -1.9175655586   -0.9814930685
 H  -2.2955541731   -2.1724388126   -2.2981921087
 H  -2.9019513796   -4.3817763131   -3.2556700981
 H  -1.4061318924   -6.3295823842   -2.890383078
 H  0.6761046251   -6.0684928072   -1.5989802421
 H  2.0863252233   -1.8765440225   -1.2201862734
