65

 N  1.3974568813   -0.3011358899   0.7178535211
 C  2.5090048949   -0.2100348001   0.4112020944
 C  3.8961849136   -0.1043509996   0.0679482515
 C  4.5608011611   1.1348902019   0.1448049521
 C  3.8605005199   2.4199141593   0.3904015826
 C  2.6484716201   2.7300726845   -0.232169193
 C  2.0421508426   3.9606520359   -0.0049127553
 C  2.6267468015   4.8916279188   0.8448799088
 C  3.831373179   4.5641518869   1.4437679413
 F  4.4104583195   5.4595286697   2.2675024315
 C  4.4666883084   3.3576667876   1.230469493
 N  5.884115447   1.2137465691   0.0258124757
 C  6.6108501545   0.1286869377   -0.2310872393
 C  8.077358702   0.343480049   -0.3046782782
 C  8.5611598302   1.5106142438   -0.9035706978
 C  9.9275324289   1.7498663899   -0.9677924671
 C  10.8301074302   0.8428742162   -0.4225185619
 C  10.3274105584   -0.2965679578   0.1790890498
 F  11.1884113072   -1.1748657344   0.7290309864
 C  8.97473571   -0.5715136315   0.2501582585
 C  5.9997239685   -1.1219469855   -0.4458275318
 C  6.7647164653   -2.2332390674   -0.9281143173
 N  7.3774083476   -3.1212262454   -1.3452508432
 C  4.6143777921   -1.2644647474   -0.2651157998
 C  3.943367586   -2.5732223579   -0.4176378026
 C  4.3811138387   -3.6927466897   0.2973080249
 C  3.7521981278   -4.9177620926   0.1605347889
 C  2.6589863892   -5.0693364375   -0.7055816007
 N  2.0208174643   -6.3082755065   -0.8479056799
 C  2.0006220952   -7.2479166303   0.2221247367
 C  1.6307549251   -6.8518679904   1.5094507487
 C  1.6046577199   -7.7798200177   2.5434784495
 C  1.9265199705   -9.1125834888   2.3036111739
 C  2.2841129235   -9.5095031393   1.0187178857
 C  2.3300472019   -8.5834635053   -0.0166176422
 C  1.3713366224   -6.6602790353   -2.065687993
 C  2.0262274165   -6.508202906   -3.2899184614
 C  1.3862902812   -6.8629484047   -4.4712718671
 C  0.0983490617   -7.3901613561   -4.4449720186
 C  -0.5497845411   -7.5524952523   -3.2243321767
 C  0.0771606242   -7.183286571   -2.0401512517
 C  2.2216371562   -3.9473458923   -1.4253360943
 C  2.8523871588   -2.7243733433   -1.279676764
 H  2.1886539712   2.0279518904   -0.9180834661
 H  1.1070401803   4.1994508316   -0.50054155
 H  2.1702363472   5.8556112978   1.041130258
 H  5.4128821359   3.1476644585   1.7148657064
 H  7.8598546339   2.2222439332   -1.3235433246
 H  10.2963916489   2.6517509666   -1.4450615093
 H  11.9012503365   1.0095756068   -0.4533859398
 H  8.644794835   -1.4701182363   0.7582303643
 H  5.2195005399   -3.6072590986   0.9812953653
 H  4.1160839808   -5.7667907667   0.72682784
 H  1.3624107846   -5.8172385659   1.6969020708
 H  1.3159184602   -7.4593621495   3.5400301481
 H  1.8970773646   -9.8365628227   3.1119363784
 H  2.5410828203   -10.5455856455   0.819441554
 H  2.6212140203   -8.8924890336   -1.0152666977
 H  3.0367796064   -6.1134905079   -3.3129674697
 H  1.9058453953   -6.7393657682   -5.4167753565
 H  -0.3956229212   -7.6737594832   -5.369069423
 H  -1.5561206605   -7.9591257653   -3.1908198619
 H  -0.4345861743   -7.2992585782   -1.0902735618
 H  1.3773128214   -4.0316709079   -2.0990421721
 H  2.4935422677   -1.87678773   -1.8549290712
