54

 N  1.2991737467   0.0278142928   0.9345355052
 C  2.4035473953   0.0083078752   0.5915826336
 C  3.7820115545   -0.0213308932   0.2005010949
 C  4.5235434086   1.1697769926   0.0756659104
 C  3.9155440492   2.5201531949   0.1619881847
 C  2.6938710291   2.8190180708   -0.4464743084
 C  2.1741427917   4.1067169611   -0.3724027003
 C  2.855785521   5.1070972827   0.3096089475
 C  4.0681826445   4.788100447   0.897459984
 F  4.7409623268   5.7498564297   1.5590857196
 C  4.6188159266   3.5243447312   0.8324959554
 N  5.8423382553   1.141929907   -0.1016507755
 C  6.4913824124   -0.0132903409   -0.2255217328
 C  7.9627448143   0.0925703776   -0.3855752573
 C  8.4857447013   1.1310304129   -1.162211554
 C  9.8591872726   1.2683943127   -1.3140794438
 C  10.7314782122   0.3881195589   -0.6825996421
 C  10.1914572831   -0.6210187605   0.0938899125
 F  11.0240195765   -1.4691843344   0.7282435247
 C  8.8298439492   -0.7938661668   0.256791394
 C  5.7969331296   -1.2389235495   -0.231166292
 C  6.4686199543   -2.460503856   -0.5630677745
 N  7.0042762972   -3.4418378882   -0.8592593822
 C  4.4163561344   -1.259143175   0.0169741458
 C  3.6608092145   -2.5328614575   0.0807423981
 C  4.0454813359   -3.5291139144   0.9870666286
 C  3.3470096431   -4.7269220584   1.0642893445
 C  2.2640172259   -4.9295052303   0.2156708792
 C  1.8766504061   -3.9365861208   -0.6984238666
 C  2.5637281811   -2.7384421628   -0.7659005859
 C  0.6864154917   -4.4016515688   -1.5015400738
 C  0.4293525876   -5.7797208879   -0.9405370588
 C  -0.5456729666   -6.7038235365   -1.2851771599
 C  -0.5812577261   -7.9270981883   -0.6175069093
 C  0.346724107   -8.2215090542   0.3825554119
 C  1.3267863   -7.2982798225   0.7330321132
 C  1.3614301543   -6.0774975471   0.0659341688
 H  2.1587633471   2.0598980343   -1.0049209267
 H  1.2303210084   4.3345517465   -0.8565075367
 H  2.4677406509   6.1169474248   0.3853316316
 H  5.5744285645   3.3224880741   1.3014607794
 H  7.8088154101   1.8227126068   -1.6499653023
 H  10.2574417565   2.0691026095   -1.9285013289
 H  11.8079357852   0.4776023415   -0.7795944174
 H  8.4730456808   -1.5899699664   0.8993955745
 H  4.8872618784   -3.354809282   1.6495549465
 H  3.6481130319   -5.4872704101   1.7783064488
 H  2.2725372051   -1.971773471   -1.4777639912
 H  -0.1768196695   -3.7375653259   -1.3742720209
 H  0.9038271147   -4.4288042415   -2.575960251
 H  -1.2709206045   -6.4818327381   -2.0630469376
 H  -1.3394015542   -8.6595100344   -0.8783893566
 H  0.3031334249   -9.1799107268   0.8911181924
 H  2.0485706288   -7.5280069745   1.5115051564
