73

 C  7.712372478   -4.2413463069   6.206817267
 O  7.3273034599   -4.6710680111   4.9108294342
 C  6.00228976   -4.7702365729   4.6406544734
 C  4.985644555   -4.4841748573   5.5509636777
 C  3.6548211024   -4.6288286966   5.1670268757
 C  3.3188245691   -5.0373465978   3.8810002461
 N  1.9493052294   -5.1396391241   3.4902934042
 C  1.1240258648   -3.9890457645   3.6739275873
 C  1.4980009869   -2.7609495848   3.1211511781
 C  0.7220152923   -1.6334764624   3.3231198553
 C  -0.4583070673   -1.711278728   4.069436994
 O  -1.1539206777   -0.5551347423   4.2037889613
 C  -2.3573554403   -0.584934208   4.9543859714
 C  -0.8428217643   -2.9344180519   4.6188059326
 C  -0.0437383764   -4.0583626781   4.4275057153
 C  1.4381750867   -6.3187199699   2.9546115876
 C  2.0763839136   -7.5517139453   3.1760934592
 C  1.5638018598   -8.7210450449   2.6447131896
 C  0.4045359369   -8.7149236205   1.861405175
 C  -0.134286912   -9.9642535405   1.2880186669
 C  -0.3892590331   -11.092834357   2.0855893762
 C  -0.2646004385   -10.9895994694   3.5093294165
 N  -0.1943426555   -10.8964435145   4.6601540373
 C  -0.8493964225   -12.283804668   1.4918583114
 C  -1.0570873485   -13.5435679756   2.2483570908
 C  -0.1484316413   -13.9844949608   3.2138725457
 C  -0.3618125211   -15.1892161047   3.8747475985
 C  -1.4793756725   -15.9643405748   3.5905113072
 C  -2.361160513   -15.5100698014   2.6245189799
 F  -3.4473534025   -16.2538147162   2.3368876093
 C  -2.1731493369   -14.3261444176   1.9407602158
 N  -1.159990853   -12.3330198009   0.1982911533
 C  -0.9876646368   -11.2694206654   -0.5831661504
 C  -1.3995659931   -11.4422940675   -1.9983987863
 C  -1.1426879075   -12.6608289373   -2.6340623806
 C  -1.5340124036   -12.8592085084   -3.9515896056
 C  -2.2014313971   -11.8577464298   -4.6489582023
 C  -2.4593571149   -10.6671977766   -3.9939453656
 F  -3.1229402066   -9.6951359983   -4.6497060885
 C  -2.073309597   -10.4319796276   -2.6877554204
 C  -0.4183092404   -10.0827035808   -0.0830142632
 C  -0.0422303551   -9.025077088   -0.9736431393
 N  0.2884654705   -8.1860812318   -1.6980493744
 C  -0.22850068   -7.4874163703   1.6363779794
 C  0.2688060434   -6.3145325974   2.1738881599
 C  4.3447623905   -5.3087610322   2.9696711848
 C  5.6698527594   -5.1880857745   3.347409271
 H  8.8030388474   -4.2255714206   6.207493668
 H  7.3614091759   -4.9335785459   6.9803682645
 H  7.3372226803   -3.2348675484   6.4237675446
 H  5.2122401819   -4.15882143   6.5588356681
 H  2.8672904896   -4.412523652   5.8820736504
 H  2.4077849331   -2.6929700755   2.5330384779
 H  1.0100649088   -0.6770454886   2.8989931676
 H  -3.0922825601   -1.264018994   4.5076136953
 H  -2.1755425035   -0.8810460196   5.993668567
 H  -2.7504741301   0.432382657   4.9347624926
 H  -1.7479928616   -3.0240626093   5.206786347
 H  -0.3399280175   -5.0040196251   4.8706631019
 H  2.9776377657   -7.5942729801   3.775299488
 H  2.0872386768   -9.6533990663   2.831686968
 H  0.7426256019   -13.4073825833   3.4325279214
 H  0.3537710932   -15.5306949977   4.6152878992
 H  -1.6695307925   -16.9044715868   4.0966113598
 H  -2.8856543903   -14.0141354745   1.1864930511
 H  -0.6288279104   -13.4453349657   -2.0907608748
 H  -1.3201344231   -13.8028449006   -4.4426180039
 H  -2.5234224896   -11.9900356733   -5.6760619616
 H  -2.3281109732   -9.4861381079   -2.2242201165
 H  -1.1361454329   -7.4470877717   1.0422763618
 H  -0.2497296216   -5.3833492968   1.9814626148
 H  4.0973793005   -5.6180142877   1.9590281528
 H  6.4692453007   -5.3993890014   2.6446073827
