57

 N  1.3348612948   0.2707412562   1.8582586356
 C  2.3642607921   0.250871509   1.3317598882
 C  3.6499173332   0.2031053488   0.7009230279
 C  4.39070634   1.3738515268   0.446940758
 C  3.8629051205   2.7409198878   0.678166195
 C  2.5500871102   3.0937430182   0.3548869906
 C  2.10710031   4.3960554773   0.5588006077
 C  2.9570449833   5.3582374853   1.0899131097
 C  4.2554203831   4.9863344205   1.3950870884
 F  5.0910112284   5.9102675137   1.9082759458
 C  4.7314047755   3.7068578608   1.1938071378
 N  5.6445112042   1.3068614941   0.0038072005
 C  6.219503428   0.1358517949   -0.2586263902
 C  7.6292769982   0.2009606842   -0.7165210839
 C  8.0101978537   1.2271951577   -1.5865438192
 C  9.3262312027   1.3262523013   -2.0183148632
 C  10.2845581841   0.4194985385   -1.5778238867
 C  9.8876272715   -0.5769131025   -0.7046445504
 F  10.8086759515   -1.4503663081   -0.2535357236
 C  8.5842490307   -0.7122184472   -0.2646860354
 C  5.50119643   -1.0691256498   -0.1253897642
 C  6.0536679583   -2.3209596133   -0.5513748199
 N  6.4832558032   -3.3322454439   -0.9121023355
 C  4.1986705259   -1.047029745   0.3873818378
 C  3.4510917194   -2.3105979699   0.6310331685
 C  3.8750797606   -3.1312668805   1.677187491
 C  3.2102028739   -4.3090913805   1.9740623923
 C  2.1028071167   -4.7089819734   1.2228146748
 C  1.3926527544   -5.926752659   1.510047787
 C  0.3252271697   -6.3055484898   0.7716655472
 C  -0.1393853129   -5.5062846213   -0.3303632237
 C  -1.239419541   -5.8831391876   -1.1060079056
 C  -1.6646270713   -5.0923966653   -2.1665758486
 C  -1.001123391   -3.9116157377   -2.4743245843
 C  0.1025328418   -3.498883103   -1.722042275
 C  0.8169962973   -2.2872974931   -2.014340152
 C  1.8819948048   -1.8984545374   -1.2765812793
 C  2.3463016872   -2.6808758525   -0.1595431214
 C  1.6681791854   -3.8935605178   0.1444159426
 C  0.5429588866   -4.2990390301   -0.636694964
 H  1.8773817933   2.3661350171   -0.0834270543
 H  1.0897909516   4.6654328548   0.2951448158
 H  2.6323985367   6.3784191396   1.2626290043
 H  5.7579094722   3.463285593   1.4404620905
 H  7.2670733056   1.9390939896   -1.9265124252
 H  9.6119266404   2.1175584529   -2.7034164098
 H  11.3200144081   0.4790468632   -1.8944370174
 H  8.3448598518   -1.4994616141   0.4400518113
 H  4.7305489537   -2.8308568687   2.2740421753
 H  3.5478540759   -4.9297116456   2.7984336514
 H  1.7387776664   -6.5365834356   2.3394110085
 H  -0.2046249503   -7.2267610983   0.9965438881
 H  -1.7609073418   -6.8061225813   -0.869250543
 H  -2.5206064099   -5.4003434576   -2.7590273222
 H  -1.3344842313   -3.2962602216   -3.3050517244
 H  0.4834554774   -1.6837768035   -2.8536092524
 H  2.405590506   -0.9843150503   -1.5337354971
