52

 C  1.4676168249   -0.1392225022   0.2511276135
 C  1.0785427521   -1.3325848444   -0.5765332914
 C  1.6556688381   -1.5452440073   -1.802854073
 C  1.3105602393   -2.6566614194   -2.5990265229
 C  0.3838059017   -3.5698948601   -2.1657771635
 C  0.0619885331   -4.7350012984   -3.0362346395
 C  0.6048156023   -6.0021230397   -2.7931848898
 C  1.4487714012   -6.1769233518   -1.6480974661
 N  2.1189759925   -6.3025435621   -0.7142234637
 C  0.2720535643   -7.0783791281   -3.6379955547
 C  0.7958285283   -8.4549767581   -3.450390614
 C  -0.0756632425   -9.5361969229   -3.6122826208
 C  0.3862467845   -10.8365998227   -3.4582317908
 C  1.7228883186   -11.0815048404   -3.1611555594
 C  2.5693560815   -9.9968317231   -3.0229497866
 F  3.8709716577   -10.2177768145   -2.7548864939
 C  2.1402653588   -8.6893944551   -3.1564802913
 N  -0.5607628687   -6.9136061496   -4.6643361529
 C  -1.078410267   -5.7186320889   -4.9418578582
 C  -1.9730893835   -5.6641733559   -6.1248388761
 C  -2.8693354947   -6.7148091214   -6.3431465431
 C  -3.707634847   -6.7011248219   -7.4499829346
 C  -3.653780979   -5.6544732998   -8.3645330429
 C  -2.747779666   -4.6349649152   -8.1362320908
 F  -2.6698346632   -3.6236339526   -9.0228059562
 C  -1.9078043072   -4.6105820142   -7.0385275509
 C  -0.7919621328   -4.5991790216   -4.1361830673
 C  -1.4144093835   -3.3287062856   -4.3662635727
 N  -1.9239619888   -2.3041724089   -4.5330754071
 C  -0.256599651   -3.3916836387   -0.8995477896
 C  -1.2415315966   -4.2909263535   -0.4145518982
 C  -1.8396980723   -4.0933558791   0.8021713402
 C  -1.4840279495   -2.9830826044   1.5958731775
 C  -0.5408719435   -2.0937169049   1.1514030877
 C  0.0993439299   -2.2643810697   -0.1038569248
 H  0.6080719806   0.5102086178   0.4501099941
 H  2.2261997688   0.4542746658   -0.2647921383
 H  1.8757195928   -0.4389623689   1.2225904294
 H  2.3980782396   -0.8457486457   -2.1749091001
 H  1.7935739876   -2.7914129111   -3.5620127581
 H  -1.1167981983   -9.3506917382   -3.8499302056
 H  -0.2987821383   -11.6701946239   -3.5727898677
 H  2.1099949159   -12.0876038307   -3.0433302181
 H  2.860879031   -7.8859860586   -3.0603888228
 H  -2.9108793533   -7.5353113894   -5.6361636371
 H  -4.4093594312   -7.5138662769   -7.6060744468
 H  -4.292485567   -5.6236260318   -9.240469944
 H  -1.2038469125   -3.7938372503   -6.9320443318
 H  -1.5280000042   -5.14505709   -1.0190933757
 H  -2.5914061359   -4.7920385765   1.1561648255
 H  -1.9618668296   -2.8333265584   2.5590951854
 H  -0.2773348182   -1.2410266973   1.7667470795
