56

 C  0.8194125834   1.0187318168   0.3097355675
 C  0.2563735287   0.2203783126   1.4543508581
 C  -0.9986903107   -0.384956498   1.3597493319
 C  -1.5111129016   -1.1453010204   2.4019341534
 C  -0.7857980236   -1.325806954   3.5849056712
 C  -1.3323977806   -2.1359349809   4.7012831344
 C  -2.1090019584   -3.2729047279   4.4519423354
 C  -2.6163190671   -4.0367000129   5.4923985023
 C  -2.3669133683   -3.6765180311   6.8184262074
 C  -2.9112612571   -4.4851944609   7.9370755797
 C  -2.5795936578   -5.8385449858   8.093968716
 C  -1.690509834   -6.4547117676   7.1538308351
 N  -0.9754729998   -6.9479650155   6.3904871952
 C  -3.1459994562   -6.5802755707   9.1485053403
 C  -2.8641966271   -8.0205918209   9.376787187
 C  -3.9260727357   -8.8700905777   9.7015410188
 C  -3.6964002521   -10.2190739097   9.9374636943
 C  -2.4074777291   -10.7382271458   9.8738684431
 C  -1.371323881   -9.874962806   9.5685162261
 F  -0.1145773149   -10.358231166   9.5225521659
 C  -1.5660809385   -8.529823861   9.3150288504
 N  -3.9927150559   -6.0194342043   10.0093962084
 C  -4.3096583476   -4.7299547181   9.9115741584
 C  -5.2412435621   -4.2183525258   10.9478279351
 C  -6.3156660702   -5.0189429661   11.3468384011
 C  -7.1928176511   -4.5751267447   12.3275382104
 C  -7.0038001419   -3.3397752647   12.9383029181
 C  -5.9240462683   -2.5733396566   12.5394246699
 F  -5.7154923104   -1.3835719831   13.1359457657
 C  -5.0392900178   -2.9788869598   11.5577642821
 C  -3.7963115163   -3.9304249883   8.8721921663
 C  -4.2456006025   -2.5813015021   8.6907960186
 N  -4.6223307296   -1.5004761756   8.5258177618
 C  -1.5988648407   -2.5393436027   7.078593292
 C  -1.0863614003   -1.7855475468   6.0335172641
 C  0.468747896   -0.7163313543   3.6824628691
 C  0.9775105053   0.0420796496   2.6355536296
 H  1.584823824   1.7211382615   0.6516824835
 H  0.0370911037   1.5859277643   -0.2038384691
 H  1.2853608105   0.3626276852   -0.4355320278
 H  -1.5890108667   -0.2520023794   0.4567978825
 H  -2.4992611568   -1.5843884906   2.303265227
 H  -2.305935592   -3.5782173646   3.4295828231
 H  -3.2170509281   -4.9130786649   5.2708184369
 H  -4.931410063   -8.4688186278   9.7590157513
 H  -4.5272806429   -10.8747212076   10.1764559375
 H  -2.2007429185   -11.7862806978   10.0607898311
 H  -0.7074300809   -7.9035592134   9.1041318169
 H  -6.4626466739   -5.9853318276   10.8785848554
 H  -8.0317225463   -5.1965194954   12.6231846422
 H  -7.6702030275   -2.9736172084   13.7115594865
 H  -4.1991758891   -2.3413490472   11.3090171863
 H  -1.3948041011   -2.2456704071   8.1035525253
 H  -0.5018945335   -0.8998230036   6.2595244524
 H  1.0650205559   -0.849636604   4.5800419548
 H  1.957716821   0.5004262548   2.7369686402
