53

 N  1.3580768177   -0.2373909085   0.6086110971
 C  2.481912327   -0.1725514695   0.3433857702
 C  3.8821542115   -0.1042592922   0.0467911678
 C  4.5714529126   1.1235860181   0.0867367947
 C  3.8945390896   2.4314216491   0.2654773411
 C  2.7000314964   2.7396991117   -0.3903743453
 C  2.1141116034   3.9895162752   -0.2220974374
 C  2.7022361963   4.9418690743   0.6010337311
 C  3.8900434728   4.6156129023   1.2333518763
 F  4.4724157527   5.5316621744   2.0314743756
 C  4.5049779312   3.3898409395   1.0787966081
 N  5.8983429002   1.1688672236   -0.0071873543
 C  6.6087662945   0.05977035   -0.1983777766
 C  8.0800148122   0.2428684495   -0.2527778685
 C  8.5976664293   1.3731472399   -0.8927089689
 C  9.969497716   1.5823236915   -0.9425032786
 C  10.8437517914   0.6824327289   -0.3420803635
 C  10.3076159656   -0.4193700629   0.299420643
 F  11.1407652262   -1.2893249454   0.902716004
 C  8.9485818101   -0.6643575833   0.357646093
 C  5.9763404543   -1.1881389992   -0.3642229985
 C  6.7237661758   -2.3444535717   -0.761196671
 N  7.3196666502   -3.2732021652   -1.1074555982
 C  4.5860610215   -1.2895210029   -0.2109211309
 C  3.890682386   -2.5948957843   -0.3165601876
 C  4.2414862616   -3.654580204   0.5232882542
 C  3.5878630577   -4.8735354976   0.4246672832
 C  2.5754502223   -5.0750091532   -0.5197343509
 C  1.8836173309   -6.383442988   -0.6287767828
 C  1.6082672431   -7.1462452002   0.5119733481
 C  0.9617127576   -8.3716514933   0.4185627818
 C  0.5921387425   -8.8292280971   -0.8335365334
 F  -0.0355605194   -10.0181984637   -0.9329446435
 C  0.84467773   -8.1085086284   -1.9870451332
 C  1.4914979581   -6.8847903935   -1.8753944292
 C  2.2338699718   -4.0093033825   -1.3593937617
 C  2.8764079475   -2.7847170911   -1.2581807612
 H  2.2388254898   2.020496151   -1.0571704694
 H  1.1922446152   4.2261047866   -0.7429233458
 H  2.2610787381   5.9210823683   0.7518221345
 H  5.4380880254   3.180658891   1.5882617668
 H  7.9183222311   2.0793222995   -1.3557518575
 H  10.3648240693   2.4550760595   -1.4516648919
 H  11.9184493213   0.8265318253   -0.3609633596
 H  8.5914094576   -1.5330573034   0.8980245957
 H  5.0226119507   -3.5235867088   1.2654626554
 H  3.8843947569   -5.6855427928   1.0805326007
 H  1.8837144483   -6.7709831436   1.4921076391
 H  0.7375873973   -8.9640009119   1.2989648478
 H  0.545850544   -8.5070340864   -2.9504346596
 H  1.7114449243   -6.3223246423   -2.776889847
 H  1.4423210838   -4.1303347525   -2.0916301248
 H  2.593972799   -1.9745794899   -1.9229304782
