49

 N  1.3479752073   0.208031958   1.703978228
 C  2.4033420296   0.1977816801   1.2315020133
 C  3.7202966351   0.1635409389   0.6679443312
 C  4.4485930774   1.3435874347   0.4234099342
 C  3.8822808578   2.7036989465   0.5984246332
 C  2.5821210588   3.0233566059   0.2023634842
 C  2.1049753029   4.3188479176   0.35896412
 C  2.9082352589   5.3073483544   0.9135877767
 C  4.2026769646   4.9775536746   1.2952422045
 Cl  5.231899355   6.2143965541   1.992021281
 C  4.7042545472   3.6969952987   1.1380712832
 N  5.7231776476   1.2938840486   0.0415891438
 C  6.3326420871   0.1299132394   -0.1676780509
 C  7.7608857984   0.2161593314   -0.561299652
 C  8.1608088934   1.2308253664   -1.4349550699
 C  9.4923289002   1.3481636484   -1.8062986817
 C  10.4468123255   0.4716597614   -1.301058715
 C  10.0395580819   -0.5199522803   -0.4199998038
 Cl  11.2320440557   -1.6182001536   0.2472574333
 C  8.7128001901   -0.6642748748   -0.0433423136
 C  5.6328986887   -1.0868212445   -0.0427794467
 C  6.2306223718   -2.3345746009   -0.416936838
 N  6.7013170121   -3.3408496345   -0.7380045553
 C  4.3085233879   -1.0806708239   0.4089591418
 C  3.5693405466   -2.3523632276   0.6397531456
 C  3.9084715023   -3.1194453402   1.7288890386
 C  3.2224499588   -4.3200552957   2.0107357737
 C  2.2103184891   -4.7387010998   1.1915165806
 C  1.8407395594   -3.9832802095   0.0494308548
 C  0.8018894352   -4.4177734357   -0.8135263626
 C  0.4582287712   -3.6899905695   -1.9208204989
 C  1.1448017423   -2.4914982588   -2.2190647505
 C  2.1518105512   -2.0432627753   -1.4050129672
 C  2.5249887587   -2.7699899557   -0.2438292373
 H  1.9468615098   2.2743052077   -0.2556027165
 H  1.0976893547   4.564658473   0.0398775691
 H  2.5372058747   6.317934074   1.0422300254
 H  5.718673943   3.4591675004   1.4342018146
 H  7.4199272354   1.9188946812   -1.8255422251
 H  9.7959059765   2.1295567795   -2.4950501166
 H  11.4896513642   0.5617541379   -1.5839253256
 H  8.437402596   -1.4338989366   0.667415977
 H  4.7055135144   -2.7916456217   2.3890612033
 H  3.50474833   -4.9021421463   2.8818602248
 H  1.6744279105   -5.660272534   1.4000251925
 H  0.2863248087   -5.3440896036   -0.5765132819
 H  -0.3378143559   -4.0313719403   -2.5751382517
 H  0.8731259817   -1.9233367868   -3.1033504897
 H  2.6750669065   -1.1265042635   -1.655423058
