53

 N  1.265911542   0.0658962768   1.5268217057
 C  2.338081645   0.0639554665   1.0935090197
 C  3.6765537306   0.0438739818   0.5827071887
 C  4.4053536931   1.2334533974   0.3922680956
 C  3.8159508234   2.5858940076   0.5498527392
 C  2.5354467106   2.8950149274   0.0871479103
 C  2.0369916713   4.1844597183   0.2260955717
 C  2.7992998147   5.1773755564   0.82861189
 C  4.0749247274   4.8581170508   1.2768092206
 Cl  5.0530967886   6.1009837435   2.0340639966
 C  4.5973793306   3.5836618922   1.1390699199
 N  5.6992688677   1.2014469775   0.0802124574
 C  6.3295491123   0.0453642315   -0.1109421384
 C  7.7765688501   0.1487836866   -0.423486115
 C  8.217484141   1.1843889842   -1.251707221
 C  9.5666738549   1.3172976047   -1.5461250286
 C  10.4976951577   0.4352282009   -1.0079042776
 C  10.048924165   -0.5776541868   -0.1723838624
 Cl  11.2103146135   -1.6832472604   0.5364146021
 C  8.7044239845   -0.7375582507   0.1269849544
 C  5.6350485635   -1.1786727418   -0.045380304
 C  6.2655624016   -2.4105911775   -0.417744125
 N  6.7674339097   -3.401012276   -0.7412083922
 C  4.2869306575   -1.1936796139   0.3354665174
 C  3.5426814418   -2.4697065516   0.4870284068
 C  3.9037092611   -3.3449988036   1.4939305509
 C  3.2321856463   -4.569874078   1.7231013753
 C  2.1862656487   -4.909449145   0.9055370329
 C  1.8224074939   -4.0283767016   -0.1329411538
 C  0.7445886179   -4.5235413049   -0.8958974844
 C  0.2874538197   -3.7801741656   -1.9523992148
 C  0.9210082104   -2.5435022122   -2.2385988932
 C  1.9724642332   -2.0582784963   -1.4936626805
 C  2.4608291253   -2.8030369606   -0.388070023
 C  0.3165247506   -5.8609938778   -0.3316503571
 C  1.2761424859   -6.1162436375   0.8692723574
 H  1.9336350431   2.1425879463   -0.4090088537
 H  1.0456552504   4.4222235127   -0.1448477763
 H  2.4115718083   6.183388931   0.942951764
 H  5.5971581057   3.354132983   1.4868987084
 H  7.4947751029   1.8768795762   -1.6676594161
 H  9.9026108804   2.1152917048   -2.1999324461
 H  11.5539832721   0.5372426015   -1.2303036063
 H  8.3954647106   -1.5245753408   0.8040705671
 H  4.7275708761   -3.0761437285   2.1486138048
 H  3.5568236971   -5.2105097531   2.5372613757
 H  -0.5384221823   -4.1169180568   -2.5722411208
 H  0.5627745915   -1.9593562477   -3.081355043
 H  2.4287769245   -1.1109448741   -1.7622027028
 H  0.396593266   -6.6515828978   -1.0843744552
 H  -0.7298579155   -5.8377954634   -0.0113125503
 H  1.8511016268   -7.0382455526   0.7378776089
 H  0.7261054509   -6.2214196029   1.8097699002
