45

 C  0.9647812277   0.2499185262   0.5388641727
 C  -0.2210472128   0.2076339652   0.3300549239
 C  -1.6318983326   0.1575261831   0.0834570332
 C  -2.1285809576   -0.4894381462   -1.0541047468
 C  -3.4935947795   -0.5425734654   -1.2878884719
 C  -4.3848927474   0.0581881962   -0.3960326168
 C  -5.8480958507   0.0104942944   -0.6452742551
 C  -6.5404031503   -1.2056491793   -0.7221623499
 C  -5.8180712568   -2.434141688   -0.5692367643
 N  -5.2270741433   -3.4209601795   -0.4512002607
 C  -7.9247647306   -1.2058062946   -0.980445415
 C  -8.7339671503   -2.4471194684   -1.0819377562
 C  -8.6037698014   -3.4955190732   -0.1698845662
 C  -9.4066857154   -4.6237310946   -0.2866400616
 C  -10.3398171602   -4.7262661943   -1.310514188
 C  -10.4641152912   -3.6716720616   -2.2062031734
 Cl  -11.6407432297   -3.7816587059   -3.5016483709
 C  -9.6849518544   -2.5321079895   -2.1021306755
 N  -8.5929733412   -0.0687649232   -1.1622338764
 C  -7.9737220508   1.1064188885   -1.0768689473
 C  -8.8320707982   2.3001449232   -1.2830758362
 C  -9.7910584557   2.2756693471   -2.2987180579
 C  -10.6179400858   3.3704159158   -2.5049332073
 C  -10.51639514   4.4952984368   -1.6932567776
 C  -9.5732128929   4.4987114373   -0.6756305369
 Cl  -9.4483250316   5.8976239348   0.3735285457
 C  -8.7273776861   3.4213494273   -0.457945211
 C  -6.5899792483   1.1849621474   -0.8294024834
 C  -5.9076760947   2.4451389711   -0.8617364675
 N  -5.3499665307   3.4570269093   -0.9081542299
 C  -3.8907167936   0.7107433722   0.7360643425
 C  -2.5270587703   0.7556568617   0.978093116
 H  2.0182456338   0.2873592958   0.7238852727
 H  -1.4398620012   -0.9493288649   -1.7543548803
 H  -3.8669895784   -1.0406389736   -2.1765717644
 H  -7.8988202983   -3.4256297848   0.6502104899
 H  -9.309258628   -5.431294061   0.4313011845
 H  -10.9639645122   -5.6074367799   -1.4081602917
 H  -9.8027533059   -1.7166215777   -2.8056581821
 H  -9.8771926725   1.3986312516   -2.9300335182
 H  -11.352259054   3.3521238731   -3.3034158841
 H  -11.1632656786   5.3518873905   -1.8465384266
 H  -8.0208368717   3.4499723594   0.3628568127
 H  -4.5767320044   1.1730861059   1.438470101
 H  -2.1490359721   1.2552764916   1.863336256
