53

 C  0.5238313304   -3.2065005025   -2.4850929002
 O  1.2987825736   -2.0159128058   -2.4774907828
 C  1.1778472765   -1.1540051873   -3.5140777397
 C  0.3063215483   -1.3732558966   -4.6118776252
 C  0.2398476694   -0.4530477211   -5.6247845474
 C  1.0277297358   0.7227803897   -5.6046370858
 C  0.9751961913   1.6786978391   -6.6471565815
 C  1.7418414511   2.8186777285   -6.6001200219
 C  1.670652698   3.8147186097   -7.6962435581
 C  1.3183040708   5.1509078741   -7.4541783562
 C  1.0058851468   5.5642766732   -6.1179626976
 N  0.7569492763   5.8940860043   -5.0378864805
 C  1.2990780228   6.0742263512   -8.5159613558
 C  0.9447536162   7.506652131   -8.3422000601
 C  1.7346110133   8.4767716805   -8.9636992348
 C  1.4193487142   9.8216518014   -8.8337005597
 C  0.3047442438   10.2185551904   -8.102472568
 C  -0.4828618435   9.2434641172   -7.5077452299
 Cl  -1.9068145486   9.7245651309   -6.605001022
 C  -0.1804717495   7.893751965   -7.6126576438
 N  1.6145548449   5.7088694836   -9.7566835072
 C  1.9269138725   4.4443996495   -10.0325473469
 C  2.2356292839   4.1584143886   -11.4568726905
 C  3.004708324   5.073703952   -12.1798255983
 C  3.2925188548   4.8416326555   -13.5170376045
 C  2.8036278312   3.7087270736   -14.1591008763
 C  2.0247704621   2.8176834995   -13.4348637504
 Cl  1.3775333898   1.397217432   -14.2332161465
 C  1.7351763795   3.0216445548   -12.0940369983
 C  1.9774461403   3.4670071298   -9.0199433234
 C  2.4421120599   2.1414847296   -9.3066503046
 N  2.8387997888   1.0805190979   -9.5397541387
 C  2.608392026   3.0369343306   -5.4920841719
 C  2.6869289311   2.1223244046   -4.4809080569
 C  1.8982181968   0.9391347197   -4.4999420833
 C  1.9556242912   -0.0170928692   -3.4658187318
 H  0.7844444873   -3.7368592048   -1.5683373835
 H  0.7653450342   -3.8384108394   -3.3465357582
 H  -0.5496184017   -2.9885887103   -2.4807778553
 H  -0.3076189206   -2.2642781495   -4.6561446246
 H  -0.4271330169   -0.6227882234   -6.465154076
 H  0.3020039623   1.5015123729   -7.4811297673
 H  2.6006659663   8.1712036861   -9.540052289
 H  2.0434711773   10.5728359731   -9.3063194123
 H  0.0504426388   11.2678128203   -8.0020306621
 H  -0.8325583917   7.1580671811   -7.1574030105
 H  3.381595949   5.9615794346   -11.6850328413
 H  3.9013472267   5.5484897884   -14.0709684936
 H  3.0206450593   3.5257223702   -15.2055455915
 H  1.1042526099   2.3164893172   -11.5668808188
 H  3.2260706773   3.9288461278   -5.4654775694
 H  3.3604905989   2.2892895793   -3.6455443454
 H  2.6173722298   0.1375208716   -2.6193741205
