53

 C  -0.6925718468   -0.4261322852   0.2954779596
 O  0.6030927129   -0.9642449958   0.526008866
 C  0.774252242   -2.2949116076   0.4000320359
 C  -0.2224368647   -3.1794395574   0.0639971091
 C  0.0718468516   -4.552484173   -0.0464676008
 C  1.3364811299   -5.04506137   0.1622218608
 C  1.576140127   -6.4999311153   -0.0146969322
 C  2.3429654705   -6.995028979   -1.0789848714
 C  2.830535972   -6.0726678961   -2.061185991
 N  3.1992800923   -5.3198672496   -2.8578377442
 C  2.5608059655   -8.3804768961   -1.1993671113
 C  3.4237962415   -8.9822011965   -2.2453381295
 C  4.6426371709   -8.4117583093   -2.6172822888
 C  5.4351812462   -9.0268644436   -3.5785139207
 C  5.0253951817   -10.2082931569   -4.1836595306
 C  3.8140541558   -10.7689078172   -3.7985280387
 Cl  3.2849293441   -12.2622704009   -4.5496558026
 C  3.0130364881   -10.1810903495   -2.8346890916
 N  1.9653041004   -9.2416213422   -0.376485574
 C  1.1856839908   -8.8151517178   0.6136646442
 C  0.5589225391   -9.8780186656   1.43819244
 C  1.3053933321   -11.0156708214   1.755859838
 C  0.7400575199   -12.0337703693   2.5098266956
 C  -0.5788755871   -11.9441481452   2.942057686
 C  -1.3151048655   -10.8175915508   2.6039052705
 Cl  -2.9871824666   -10.6995536752   3.1179899737
 C  -0.7680434127   -9.7817646186   1.8616683039
 C  1.0114060786   -7.4386408973   0.8582002818
 C  0.3097689494   -6.9718595095   2.0174703608
 N  -0.23632419   -6.5951020034   2.9647568654
 C  2.3914594937   -4.1492089973   0.5346391041
 C  3.7101507475   -4.5870635766   0.8198701718
 C  4.6891809976   -3.696883016   1.1796157197
 C  4.4023236979   -2.3200985053   1.2781365239
 C  3.1349124973   -1.8647638456   1.0220751646
 C  2.1052807424   -2.7624296815   0.651054497
 H  -0.6009156405   0.6494007891   0.4488627653
 H  -1.4221032399   -0.8345075694   1.0025354679
 H  -1.0251848688   -0.6213747728   -0.7293242979
 H  -1.2337338907   -2.8434004523   -0.1243157598
 H  -0.7283159927   -5.2316040249   -0.3247135267
 H  4.9933093889   -7.5043744835   -2.1396182844
 H  6.3865356686   -8.5854939052   -3.8559816326
 H  5.6388204475   -10.6889582576   -4.9374766784
 H  2.0748454611   -10.6361214995   -2.540972239
 H  2.3315101092   -11.0910121082   1.4147067571
 H  1.3275467178   -12.9094836842   2.7651007025
 H  -1.0273167759   -12.7393017114   3.5269985518
 H  -1.3808601443   -8.9293098336   1.5947531535
 H  3.9446181341   -5.6446176689   0.7628059161
 H  5.6911020469   -4.0556310726   1.3943330772
 H  5.1847395896   -1.6237745754   1.5630392533
 H  2.9013471438   -0.810022432   1.1038180292
