65

 N  1.3025157777   -0.4041953717   0.7835232375
 C  2.4168439353   -0.3178905277   0.4859473142
 C  3.8068190518   -0.2136210117   0.1533609871
 C  4.471071809   1.0251823858   0.2354195177
 C  3.7695043444   2.3092947995   0.4835520304
 C  2.5622916914   2.6256692297   -0.142783148
 C  1.9573317254   3.8543122658   0.0914179815
 C  2.5385258478   4.7772357878   0.9521162496
 C  3.7433298085   4.4522616765   1.5624633338
 Cl  4.4925939394   5.6072538324   2.6484275067
 C  4.3716008031   3.2399025675   1.3345629924
 N  5.7947161064   1.1053845701   0.1217628199
 C  6.5223438244   0.0202093132   -0.131534376
 C  7.9888210131   0.238222775   -0.2039818466
 C  8.4707528639   1.3977227337   -0.8167429832
 C  9.8355823687   1.6385173557   -0.8803420736
 C  10.7380678558   0.7410010455   -0.3197770978
 C  10.2456826896   -0.3973797225   0.3024939641
 Cl  11.3685594394   -1.5254820737   1.0376864594
 C  8.8867357205   -0.6656912576   0.3675360055
 C  5.9137354347   -1.2315010309   -0.3452115569
 C  6.6842338399   -2.3431811969   -0.8180127163
 N  7.3047678567   -3.2298052906   -1.2262449905
 C  4.5273227194   -1.3744990453   -0.172554885
 C  3.8577617161   -2.6835368696   -0.3242681394
 C  4.2975083204   -3.8023152511   0.3906178255
 C  3.6679034407   -5.02727219   0.2569779332
 C  2.5720645661   -5.1794320853   -0.6057188676
 N  1.9325079597   -6.4181221711   -0.7440319688
 C  1.9066568701   -7.3523812648   0.3303835693
 C  1.5437363944   -6.9472974728   1.6169406514
 C  1.5119829406   -7.8703197202   2.6551934179
 C  1.8210287557   -9.2070194753   2.4205965531
 C  2.1713937063   -9.6129266581   1.1365307093
 C  2.2233071673   -8.6920004643   0.0969438314
 C  1.281211075   -6.7712108111   -1.9606158114
 C  1.9374210646   -6.6254863003   -3.1848816548
 C  1.2961157033   -6.9796804265   -4.3656446611
 C  0.005450629   -7.5001544164   -4.3384560462
 C  -0.6439407226   -7.6563563058   -3.117683103
 C  -0.0155051723   -7.2877181644   -1.9340914704
 C  2.1334492302   -4.058410951   -1.3261923539
 C  2.7646513008   -2.8354247374   -1.1834130569
 H  2.1045794901   1.929414747   -0.8361349116
 H  1.0253125889   4.1003893717   -0.4063479081
 H  2.0669504725   5.7350808336   1.1411725864
 H  5.31538025   3.0067764488   1.8126234808
 H  7.7690689551   2.1022474989   -1.248293899
 H  10.2059794502   2.5336453929   -1.3688953409
 H  11.8054369898   0.9265534095   -0.3618054064
 H  8.5364890113   -1.5518449791   0.8833603769
 H  5.1372733527   -3.7162424116   1.0727974354
 H  4.0328697141   -5.8757545686   0.8233871134
 H  1.2851457902   -5.909502683   1.800557407
 H  1.2290509027   -7.5426182986   3.6510393343
 H  1.7870199436   -9.9271126687   3.2321986967
 H  2.4182218963   -10.6522162352   0.9412033201
 H  2.5089948213   -9.0083767151   -0.9009545851
 H  2.9499342239   -6.235847801   -3.2080534199
 H  1.8165454873   -6.8609987068   -5.3112853504
 H  -0.4897171111   -7.7833229185   -5.2620355498
 H  -1.652359068   -8.057702914   -3.0836829049
 H  -0.5281499787   -7.3988406657   -0.9841404771
 H  1.2874722027   -4.1434905686   -1.9976796337
 H  2.4045052037   -1.9883336422   -1.7585224478
