55

 N  1.1528794302   -0.2534855607   0.4197570409
 C  2.2867098951   -0.1881668819   0.2017934264
 C  3.6976932313   -0.1173997738   -0.0381201142
 C  4.3858091335   1.1083862249   0.0513594993
 C  3.7029686273   2.4128276091   0.2339305208
 C  2.5358157029   2.7405946393   -0.4586616249
 C  1.946926256   3.9862592237   -0.280041376
 C  2.5048336048   4.9150526133   0.5896461857
 C  3.670938995   4.5786432647   1.2655423938
 Cl  4.3908823807   5.7411701829   2.3629246225
 C  4.2829631855   3.3488391953   1.0943731209
 N  5.71500323   1.1546490366   0.0058607269
 C  6.4311839763   0.0486392051   -0.1800670534
 C  7.9036702391   0.2324612325   -0.180758618
 C  8.4435235156   1.3649617242   -0.7957640399
 C  9.8151821889   1.5730582582   -0.7942215803
 C  10.6660205967   0.6697885033   -0.1660845614
 C  10.115509818   -0.4409860806   0.4574546209
 Cl  11.1717456351   -1.5752754836   1.2765873159
 C  8.7490231658   -0.6766380053   0.4587234282
 C  5.8057089231   -1.1958069903   -0.3899714208
 C  6.5694725531   -2.3452103598   -0.7760458184
 N  7.1816287879   -3.2668925238   -1.112455051
 C  4.410962603   -1.2980207194   -0.2895874526
 C  3.7204663152   -2.6022187202   -0.4395907731
 C  4.0468743777   -3.6711030929   0.3997453153
 C  3.4004104836   -4.8889125223   0.2673717479
 C  2.4209971024   -5.0671052   -0.7188842205
 C  1.7588695157   -6.3251120488   -0.860739021
 C  1.1999027915   -7.3911099886   -0.9790016132
 C  0.5396076902   -8.6520631233   -1.1165501973
 C  0.8499458304   -9.7105614712   -0.2513213118
 C  0.2060822909   -10.9326697734   -0.3871589671
 C  -0.7502810875   -11.1142391126   -1.3826197412
 C  -1.0627564473   -10.067048014   -2.2453208539
 C  -0.4240766406   -8.8413832841   -2.1168963786
 C  2.1000822545   -3.9958955129   -1.5634521736
 C  2.739294725   -2.7754099915   -1.4199140793
 H  2.0987778629   2.0397022119   -1.1605668906
 H  1.04615441   4.2408208078   -0.8284759458
 H  2.0451636805   5.8861453727   0.7357324731
 H  5.1963165892   3.1059824794   1.623966055
 H  7.7816713897   2.0737979604   -1.2800076012
 H  10.2313623211   2.4469895041   -1.2842929642
 H  11.7383448316   0.8298676051   -0.1570698472
 H  8.351352189   -1.5408681872   0.9773006075
 H  4.7972596693   -3.5447434038   1.1733962451
 H  3.6509299096   -5.7105789039   0.9294231667
 H  1.5956425968   -9.5652913348   0.5234902129
 H  0.451948085   -11.7470976034   0.2871975085
 H  -1.2519444718   -12.0714870724   -1.485965733
 H  -1.8077925755   -10.2054578618   -3.0226754708
 H  -0.6652084346   -8.0230960445   -2.7875136179
 H  1.347662918   -4.1266727154   -2.3335201964
 H  2.4867041526   -1.9567594927   -2.0859099258
