54

 N  1.3148137287   0.0685464181   0.9771616732
 C  2.4198154806   0.0402581735   0.6369755839
 C  3.7990089974   0.0035467611   0.2488065701
 C  4.5420573839   1.1922654389   0.1139860458
 C  3.9355120648   2.5440510636   0.1917310883
 C  2.716472069   2.8432310108   -0.4194276957
 C  2.2006252145   4.1314646357   -0.3501736884
 C  2.8839742934   5.1321783323   0.3294293411
 C  4.09998586   4.8223794233   0.9255083811
 Cl  4.9778287785   6.0753825409   1.7821789303
 C  4.6399899831   3.5494509597   0.8593515138
 N  5.8601840813   1.1621733359   -0.066591171
 C  6.5073836393   0.0048828951   -0.1799630486
 C  7.9776739437   0.1102844784   -0.3529001942
 C  8.4923165701   1.1364377804   -1.1495592954
 C  9.8630990523   1.2726672802   -1.313879273
 C  10.7411345354   0.4035654391   -0.6750872248
 C  10.2180000145   -0.600007252   0.1278677126
 Cl  11.3107254409   -1.6886802409   0.9614004692
 C  8.8514261737   -0.7630702869   0.2978528854
 C  5.8128854906   -1.2203149544   -0.1689510572
 C  6.4852954994   -2.4459308063   -0.4842101472
 N  7.0241986703   -3.4297318307   -0.7658266609
 C  4.4318722131   -1.2368932127   0.0779982339
 C  3.6728129823   -2.5080071899   0.1492235292
 C  4.0541345235   -3.5022509739   1.0591468206
 C  3.3507115883   -4.6968101542   1.141792888
 C  2.2660407606   -4.8983428158   0.295021181
 C  1.8824573465   -3.9077525061   -0.6231983246
 C  2.5743634368   -2.7128002496   -0.6959769848
 C  0.6899278646   -4.3711259269   -1.4238344819
 C  0.426866467   -5.7453674718   -0.8563937708
 C  -0.552598861   -6.6664949526   -1.1963679594
 C  -0.5938482738   -7.8862808893   -0.5226894223
 C  0.3328759254   -8.1801540326   0.4787022025
 C  1.3174379668   -7.2599324554   0.8244105275
 C  1.3579323336   -6.0427246026   0.1511491528
 H  2.1800606679   2.0831266979   -0.975536087
 H  1.2582332677   4.3620347456   -0.8356452653
 H  2.4819974557   6.1373049464   0.3903618291
 H  5.5934018398   3.3269982414   1.3230794896
 H  7.8105786176   1.8195080574   -1.6430041976
 H  10.2575700564   2.0632179675   -1.9436353134
 H  11.8134863157   0.5088818862   -0.7956071301
 H  8.4804307679   -1.5422852543   0.9523760637
 H  4.89702344   -3.3290117146   1.720417274
 H  3.6491741186   -5.4553581287   1.8588060652
 H  2.2856025198   -1.947939379   -1.4106779113
 H  -0.1702835603   -3.7025910285   -1.2994476758
 H  0.9069834538   -4.4042281129   -2.4981567921
 H  -1.2769287539   -6.4448470778   -1.9751832781
 H  -1.3554706197   -8.6163801693   -0.7798959897
 H  0.28473929   -9.1357725268   0.9920700873
 H  2.0382478837   -7.4891723133   1.6039245017
