63

 N  1.3150704332   -0.2554753206   1.4767770328
 C  2.3701153771   -0.2029947298   1.0057203623
 C  3.6914913085   -0.1374880051   0.4547740251
 C  4.3823892708   1.0881287212   0.393857339
 C  3.7551071919   2.3938552483   0.7182361695
 C  2.4705131395   2.7266224302   0.2835928964
 C  1.9369486539   3.9749346016   0.579201975
 C  2.6672363853   4.9017253903   1.3126964097
 C  3.9467567242   4.5602358463   1.7321566744
 Cl  4.8840023154   5.7199656248   2.6550340761
 C  4.5046833332   3.3277115402   1.4385795248
 N  5.6703577994   1.1363701625   0.0621845641
 C  6.3268412278   0.0303982394   -0.2799987349
 C  7.7629596247   0.2146208961   -0.6058879007
 C  8.154051384   1.3478221815   -1.3237242329
 C  9.4916394911   1.5542960988   -1.628615893
 C  10.459966669   0.6487212516   -1.2083696527
 C  10.0605634408   -0.4623668219   -0.479275505
 Cl  11.2707662395   -1.6000792897   0.0818208002
 C  8.7284449531   -0.6965735673   -0.173405787
 C  5.6695135815   -1.2124335629   -0.3550036936
 C  6.3286554444   -2.3533776665   -0.9183365801
 N  6.8544670787   -3.264255728   -1.3996031587
 C  4.3287780671   -1.3203700053   0.0474623798
 C  3.6214094165   -2.6204362921   0.0409205868
 C  4.1626359389   -3.7176382951   0.7410739841
 C  3.5317928693   -4.9479549216   0.7617951354
 C  2.3399570044   -5.0824418491   0.0484146621
 C  1.7794388407   -3.9944053228   -0.6562554805
 C  2.4213955069   -2.7612754417   -0.6538445774
 C  0.554178667   -4.4747353403   -1.2583214991
 C  -0.4163315777   -3.8835510647   -2.0685946418
 C  -1.4891991208   -4.6502729942   -2.4956439531
 C  -1.5966736984   -5.9980758711   -2.1224174674
 C  -0.6454662998   -6.6064306189   -1.3167078963
 C  0.427399182   -5.8278143445   -0.8848220839
 N  1.5169527484   -6.1872415461   -0.0914500617
 C  1.7460702571   -7.473293931   0.4729095469
 C  2.9150237829   -8.1673741721   0.1665376467
 C  3.1385493023   -9.4197472201   0.7272168115
 C  2.1923768108   -9.9874784694   1.5750195631
 C  1.0223178608   -9.2943160415   1.870092529
 C  0.7995371164   -8.0334034546   1.3287642459
 H  1.893339404   2.0278047088   -0.3112158365
 H  0.942913151   4.233188732   0.2296883472
 H  2.2518694499   5.8749140683   1.5493519293
 H  5.5077050965   3.0819943983   1.7659274453
 H  7.401970378   2.0583458141   -1.6471038593
 H  9.7890956463   2.4286264943   -2.1980146001
 H  11.5072454527   0.8072410294   -1.4400045695
 H  8.4566502042   -1.5619860924   0.4188847034
 H  5.0851850892   -3.5900923986   1.298038081
 H  3.954422889   -5.7759163411   1.3190370008
 H  2.0009015565   -1.9253971225   -1.2040264504
 H  -0.327763602   -2.8413863294   -2.3608912543
 H  -2.2535519974   -4.2066611815   -3.1258553595
 H  -2.4427361278   -6.5818976546   -2.4721405094
 H  -0.7352948438   -7.6495853182   -1.035345226
 H  3.6390194501   -7.7279023894   -0.5118908412
 H  4.05134211   -9.9571613938   0.4897540725
 H  2.3663556651   -10.9689492702   2.0049918423
 H  0.2822422246   -9.7303434614   2.5338721691
 H  -0.1010449379   -7.4786226374   1.5707427739
