73

 C  5.5708081309   7.9566865402   1.1396297535
 O  4.368421633   8.2021495589   1.851356603
 C  3.8343969112   7.1833668836   2.5691162969
 C  2.6537725825   7.4727950599   3.260583355
 C  2.037855609   6.5020757714   4.0305978866
 C  2.5759275805   5.2149159665   4.1152104137
 N  1.9158960767   4.2102253266   4.8856211582
 C  0.5466758785   3.942695166   4.5811429062
 C  0.1710100002   3.597502175   3.2799605644
 C  -1.157367285   3.3663076987   2.969589863
 C  -2.1414019896   3.4585813342   3.959110925
 O  -3.4113356875   3.2018131693   3.5597700929
 C  -4.4444775225   3.2856820996   4.5281574353
 C  -1.7751369449   3.7992790113   5.2613514166
 C  -0.4381600797   4.049335063   5.5585658425
 C  2.5811818384   3.5169777213   5.8938093225
 C  3.7390347012   4.04232815   6.493521786
 C  4.3915494876   3.3538915774   7.5003538802
 C  3.9292813183   2.1110816722   7.9448484986
 C  4.6313258708   1.3699871298   9.0140680571
 C  4.8854064533   1.943760023   10.2709065091
 C  4.4417113979   3.2805525684   10.5344444048
 N  4.083680148   4.3594430475   10.7473307509
 C  5.5879508433   1.2145305841   11.2482560537
 C  5.9154237972   1.7567530722   12.5929116235
 C  4.9777221584   2.4319791204   13.3756375585
 C  5.3276357426   2.891874428   14.6397280602
 C  6.6094076409   2.693632265   15.1370937207
 C  7.5297841151   2.0125818593   14.3505524766
 Cl  9.1514722541   1.7469832816   14.9629259492
 C  7.2005159546   1.5332784413   13.0942444802
 N  6.0172321597   -0.0235810101   11.0120647519
 C  5.7727607314   -0.6147813203   9.8443210698
 C  6.2843107038   -2.0023971539   9.708946691
 C  5.5289047728   -3.0158394955   9.1163514937
 C  6.0338669125   -4.3081422232   9.0405659633
 C  7.2931419996   -4.6069599085   9.5453474072
 C  8.0304359885   -3.5906810168   10.1397914022
 Cl  9.6195599728   -3.951650888   10.7874230475
 C  7.5431640394   -2.2986295273   10.2380889123
 C  5.0947328415   0.0598237606   8.8118118636
 C  4.9756450372   -0.5300087912   7.5110432438
 N  4.903723749   -0.994889295   6.4545022455
 C  2.7832044972   1.5820395587   7.3424221405
 C  2.1164892838   2.2688013583   6.3438723366
 C  3.7422287268   4.9274423311   3.4124505773
 C  4.3809307961   5.902629884   2.6514026837
 H  5.8258494903   8.8953570505   0.6459346055
 H  5.4372080124   7.1761896877   0.3822037863
 H  6.3857415421   7.6714380601   1.8144894654
 H  2.2386072194   8.4729026789   3.1899253908
 H  1.1269345779   6.7382906981   4.5715325876
 H  0.9293626262   3.5146114506   2.5077804156
 H  -1.4545629923   3.0999647151   1.960463954
 H  -4.2919808525   2.5668244824   5.3411117733
 H  -4.5217153724   4.2954140881   4.9466779225
 H  -5.3697043244   3.0433084243   4.0037738637
 H  -2.5162517437   3.8877490586   6.0463286922
 H  -0.1601870336   4.3277713945   6.5702936892
 H  4.1271144999   5.0009964471   6.1721616886
 H  5.2856155537   3.7883292873   7.9361900268
 H  3.9651919452   2.5785021   13.0182905042
 H  4.5916244151   3.406771905   15.24815827
 H  6.8870700859   3.0564981804   16.1203982594
 H  7.9305446634   0.9974919203   12.4994604908
 H  4.5344526439   -2.8088305492   8.7378225874
 H  5.4383856256   -5.094262809   8.5884589673
 H  7.6928341967   -5.6129940496   9.4838402841
 H  8.1303438114   -1.5212819821   10.7119667933
 H  2.3955083222   0.6211445934   7.6663882499
 H  1.2302460796   1.8302444795   5.9019454931
 H  4.1643808378   3.9285653686   3.4610914957
 H  5.2891653432   5.6466012908   2.1196272685
