58

 C  -0.7135234856   -0.983873706   -0.2659507106
 N  0.4593392572   -1.5855256959   -0.8850559078
 C  1.4496841174   -2.1406339188   -0.0240936373
 C  1.1228530288   -3.22007467   0.7975014257
 C  2.0652591426   -3.7406328056   1.6774289823
 C  3.3463082485   -3.2004846274   1.7332764171
 C  3.6768858976   -2.1286857124   0.9089142137
 C  2.7324748405   -1.5931653386   0.0408387836
 C  0.6753586613   -1.4245699505   -2.2392164232
 C  -0.1589309771   -0.5926350284   -3.010236359
 C  0.0380766286   -0.4536390355   -4.3740219329
 C  1.056523563   -1.143601367   -5.0354982793
 C  1.2578601859   -1.0068403269   -6.4926692529
 C  1.4365061741   0.2449985592   -7.1053738311
 C  1.4395425689   1.4302643219   -6.300056815
 N  1.4420675129   2.3886435651   -5.6526077721
 C  1.5945964141   0.3298547252   -8.5010683175
 C  1.7692970073   1.6161727335   -9.225389067
 C  1.0384170878   1.8340706478   -10.3957675235
 C  1.1914498304   3.0167474301   -11.1050055702
 C  2.0872702336   3.9888738128   -10.6726858021
 C  2.8217868771   3.7509458573   -9.5200610522
 Cl  3.9745726997   4.9545173924   -8.9749329702
 C  2.6761422527   2.5823208099   -8.7870174489
 N  1.5882899517   -0.7585843316   -9.2675537076
 C  1.4517376321   -1.9668542448   -8.7242553836
 C  1.4911242189   -3.1053713265   -9.6770916753
 C  2.1948677855   -4.2784647966   -9.3987838195
 C  2.2351162472   -5.3054550827   -10.3339351898
 C  1.5747451744   -5.1821489608   -11.5498757599
 C  0.8857362098   -4.0059095125   -11.8171179111
 Cl  0.0530028613   -3.8315348342   -13.3504845879
 C  0.8416530985   -2.9643098935   -10.9062205582
 C  1.2635426463   -2.1285238863   -7.3390403
 C  0.9605971421   -3.418353133   -6.7920678351
 N  0.6887469744   -4.4547689451   -6.3565542891
 C  1.8799480504   -1.983123609   -4.2734382826
 C  1.7037491252   -2.1181235443   -2.9108823469
 H  -0.7714975192   -1.3114824755   0.7711964759
 H  -1.6298233618   -1.2946856537   -0.7772861214
 H  -0.66301454   0.1127264458   -0.2761556411
 H  0.1269722598   -3.6491028125   0.7415046261
 H  1.7984223016   -4.5791385115   2.3136828785
 H  4.0834464416   -3.6116875659   2.4160182532
 H  4.6717392802   -1.6954329243   0.9506927934
 H  2.9851012714   -0.7460990572   -0.5891038351
 H  -0.966953105   -0.043004496   -2.5453759026
 H  -0.6330018139   0.1912496589   -4.9326481185
 H  0.3440806887   1.076064373   -10.7406841931
 H  0.611457184   3.1873008819   -12.0059347993
 H  2.2154264577   4.9127261204   -11.2256036624
 H  3.2835734536   2.4200915719   -7.9049151318
 H  2.7382970362   -4.3850241724   -8.4669966047
 H  2.7921705492   -6.2107761661   -10.1170227139
 H  1.59973029   -5.9829606325   -12.2804211554
 H  0.3058146415   -2.0510946445   -11.1359090765
 H  2.6854395035   -2.5307722131   -4.7531030485
 H  2.3626440961   -2.776469298   -2.3586345257
