56

 C  1.2923039327   0.2297773983   0.9562899806
 C  0.8108006188   -1.192902077   0.8630536771
 C  1.1801268085   -2.0042492243   -0.2131792781
 C  0.7311354655   -3.313037915   -0.3140728931
 C  -0.1092973059   -3.8624952359   0.6615960865
 C  -0.5907042086   -5.2618547501   0.5562504204
 C  0.2310881082   -6.269174739   0.0382567656
 C  -0.2141256004   -7.579067849   -0.0551884391
 C  -1.5049839125   -7.9173382483   0.3581717433
 C  -1.9884542135   -9.3148106522   0.2555322339
 C  -1.3175386401   -10.370161112   0.8903807075
 C  -0.2142952491   -10.0780533978   1.7569971376
 N  0.6589079743   -9.8367804505   2.475857335
 C  -1.7820947949   -11.6902030896   0.7316069463
 C  -1.0881619148   -12.8711470531   1.3020064869
 C  0.3010170481   -13.0044909104   1.2617503199
 C  0.9066899389   -14.1419963211   1.7810742935
 C  0.1431066108   -15.1538881154   2.3496049578
 C  -1.2385558037   -15.0118367337   2.3749963184
 Cl  -2.2173490944   -16.2820118323   3.0841212852
 C  -1.8654924013   -13.8936553861   1.852631713
 N  -2.9096191296   -11.9471149842   0.0728232405
 C  -3.6029698365   -10.9672712106   -0.5017621412
 C  -4.8551231537   -11.383692092   -1.1808695214
 C  -4.8693242043   -12.5841370704   -1.8957502747
 C  -6.0308609001   -13.0087189123   -2.5244762475
 C  -7.197398903   -12.2565969822   -2.4359294183
 C  -7.1749175023   -11.0758291702   -1.7072875163
 Cl  -8.6435273466   -10.1291874344   -1.5641621102
 C  -6.0232036847   -10.6251029424   -1.0801824139
 C  -3.1392747829   -9.6375751394   -0.4781733932
 C  -3.7847968372   -8.6212787113   -1.2553582396
 N  -4.2895837045   -7.8070726143   -1.9032587936
 C  -2.3354152308   -6.9176871079   0.8707077647
 C  -1.8800020774   -5.6120244749   0.9726192672
 C  -0.478877182   -3.0522591168   1.7384577051
 C  -0.0240205348   -1.7423263476   1.8356393292
 H  1.0466850942   0.6701833286   1.9264259297
 H  0.8327735964   0.8534278658   0.1805553491
 H  2.3767218773   0.293095557   0.8175197801
 H  1.8262777338   -1.6009562696   -0.9887817923
 H  1.0217653046   -3.9104277422   -1.1729460892
 H  1.2407393643   -6.0314712792   -0.2802315088
 H  0.4427816248   -8.3414423399   -0.4619168107
 H  0.9129382124   -12.2381443724   0.8001177067
 H  1.9857103422   -14.2461156578   1.7379290416
 H  0.6124691109   -16.0405722358   2.7609155422
 H  -2.9448081083   -13.8026411455   1.8742147089
 H  -3.9630524198   -13.1752729843   -1.9604168501
 H  -6.0338644022   -13.9350463936   -3.089338702
 H  -8.1096032692   -12.58582297   -2.9207822735
 H  -6.0485648652   -9.7113946608   -0.4984661756
 H  -3.3392777873   -7.1629441746   1.2028135539
 H  -2.5453673598   -4.8502317604   1.3655792388
 H  -1.1108289285   -3.4542787336   2.5245212224
 H  -0.3191134769   -1.1377420265   2.6890530938
