71

 C  -6.1342338971   1.7601541933   2.1329401562
 C  -4.804367249   2.2991567207   2.5879065398
 C  -4.3497814284   2.107909491   3.892345333
 C  -3.1319750296   2.6266729776   4.318260388
 C  -2.3250048209   3.3403665762   3.4341313573
 N  -1.0619027949   3.8445862677   3.8594894932
 C  -0.176311811   2.9577572976   4.5373170388
 C  0.0858128996   1.6915219908   4.0167211126
 C  0.9264389378   0.815664882   4.6942119922
 C  1.53931072   1.1783689721   5.8934422735
 C  2.4394353594   0.2251022147   6.6330886212
 C  1.275770217   2.4542082816   6.3993504804
 C  0.4235925638   3.3305020502   5.7424688934
 C  -0.6999521898   5.1729197399   3.6122824495
 C  -1.674746309   6.1770944908   3.5041621492
 C  -1.3135100123   7.4907803117   3.2632844154
 C  0.0287256244   7.8536784807   3.1119884761
 C  0.4122370895   9.2571950726   2.8514122787
 C  -0.0007307797   10.3019206075   3.6941897517
 C  -0.6961867636   9.9919152672   4.908104439
 N  -1.2328514729   9.740622344   5.9013842699
 C  0.3420249337   11.6317594859   3.3834908542
 C  -0.1245767539   12.7992317716   4.1726705646
 C  -1.4376803361   12.9037531171   4.6357398778
 C  -1.8401195485   14.0320100973   5.3396888992
 C  -0.9452317393   15.0631693941   5.5967641516
 C  0.3559543921   14.9493826033   5.1237174445
 Cl  1.4970853838   16.2440211623   5.4353599006
 C  0.7766421618   13.8408451464   4.4090483925
 N  1.145125317   11.914463583   2.3603847434
 C  1.6011599544   10.9487044246   1.5662120177
 C  2.5027146098   11.3927936101   0.4740059593
 C  2.2201356492   12.58849753   -0.1915442557
 C  3.0532590584   13.0371598262   -1.2060986325
 C  4.1878005772   12.3147151479   -1.5599061451
 C  4.4677913741   11.1391285824   -0.8778782875
 Cl  5.9083410359   10.2298624127   -1.2924074397
 C  3.6432875915   10.6641622902   0.130903919
 C  1.2080833533   9.609194539   1.7492491257
 C  1.5387746358   8.6124675114   0.7743254072
 N  1.7836706099   7.8164720528   -0.0283059651
 C  1.0000875609   6.8526618696   3.2149244957
 C  0.6472169754   5.5383570908   3.464880382
 C  -2.7617202415   3.5271060374   2.120281881
 C  -3.9871816986   3.0202626733   1.7126227743
 H  -6.8600065098   2.5686208065   1.9853353395
 H  -6.5548173325   1.0670656964   2.8666950882
 H  -6.0447492172   1.231673893   1.1780033066
 H  -4.962901899   1.5506381307   4.5954794965
 H  -2.8031323199   2.4735404187   5.3411748764
 H  -0.3703468205   1.3918347398   3.0786174488
 H  1.118066898   -0.1673981907   4.2724529285
 H  1.9417298574   -0.1805997988   7.5220233836
 H  2.7280193611   -0.6199484846   6.0018597067
 H  3.3527006969   0.7223427501   6.9756026269
 H  1.7357821748   2.7639035678   7.3342601722
 H  0.221265132   4.3103316191   6.1631983792
 H  -2.7229401489   5.9273282465   3.617080557
 H  -2.0918700056   8.2428392031   3.180962475
 H  -2.1590503658   12.1225100537   4.4248737811
 H  -2.8644299658   14.1137169866   5.6876539303
 H  -1.2549098647   15.9427750315   6.1499441259
 H  1.7927994825   13.7729262484   4.0397248815
 H  1.3398638199   13.1566503052   0.0865214789
 H  2.8222444567   13.9591767302   -1.7292248272
 H  4.8448454416   12.6626628172   -2.3490821671
 H  3.9071332186   9.7550363196   0.6576091391
 H  2.0510356232   7.1034265134   3.1098784918
 H  1.4230617847   4.7856981286   3.5389596927
 H  -2.1356016853   4.0684934479   1.4182276998
 H  -4.3093755224   3.1749146306   0.6860160142
