54

 N  1.2861003339   -0.6516255286   1.5951641788
 C  2.3685855645   -0.5701766466   1.1941859651
 C  3.7091164815   -0.4691958491   0.6973664216
 C  3.945287688   -0.5020764732   -0.6798350861
 C  5.2425446181   -0.4030502134   -1.1544537135
 C  6.3230653958   -0.2697927727   -0.274404543
 C  7.7101137927   -0.1611287657   -0.7898892867
 C  7.9820735288   0.5360925062   -1.9713241061
 C  9.2786184644   0.6471394802   -2.4508495458
 C  10.3369661189   0.0494690607   -1.7638685873
 C  11.7262725491   0.1583900672   -2.2754467476
 C  12.3561857781   1.4012223931   -2.4279536957
 C  11.6416683491   2.5963552267   -2.0886068095
 N  11.0583325314   3.5576230494   -1.8189219401
 C  13.6655584574   1.4621522261   -2.9417634458
 C  14.4042577537   2.7365120286   -3.1328768853
 C  14.4364690512   3.7282474098   -2.1512591867
 C  15.1693120672   4.8903531341   -2.3604597369
 C  15.8695952945   5.0828342462   -3.5446406759
 C  15.8346983971   4.0837529394   -4.5092176645
 Cl  16.7168832714   4.3082813668   -6.0079405188
 C  15.1234320438   2.9114433097   -4.3177982185
 N  14.3203939102   0.3590372449   -3.2972180136
 C  13.7641519373   -0.8409900563   -3.1460362243
 C  14.6045393613   -1.9932488679   -3.5596016867
 C  15.3515220208   -1.8972967741   -4.7362283396
 C  16.1603185846   -2.9506728176   -5.1374138806
 C  16.2535934027   -4.1036644074   -4.3651943277
 C  15.5217348078   -4.1781996782   -3.188793226
 Cl  15.6491062613   -5.6131711724   -2.1897277511
 C  14.695782942   -3.1440125826   -2.7743624507
 C  12.4559333444   -0.9799868675   -2.6444089193
 C  11.8191854647   -2.2631579464   -2.5976748894
 N  11.2961924319   -3.2942865704   -2.5779066804
 C  10.0732546265   -0.6566244493   -0.5882641589
 C  8.7767326886   -0.7529410131   -0.1057724177
 C  6.0688446244   -0.2396143951   1.1019879096
 C  4.7765418549   -0.3377659793   1.5902678682
 H  3.1157292314   -0.6117153629   -1.3695994166
 H  5.4181605781   -0.44990197   -2.2236790151
 H  7.1752990303   1.0161347404   -2.5152625368
 H  9.4650967321   1.1931376075   -3.3699643937
 H  13.9174733064   3.5878631348   -1.2101243785
 H  15.201077631   5.6537140456   -1.5902952824
 H  16.4379049806   5.9906726315   -3.7131046559
 H  15.1147285729   2.1401130074   -5.0785865051
 H  15.2867983375   -0.9976811228   -5.337731498
 H  16.7280481319   -2.8776179785   -6.059086693
 H  16.8885619169   -4.9275848711   -4.6708820777
 H  14.1574732327   -3.2261676409   -1.8375573721
 H  10.8857036822   -1.1258750506   -0.042714989
 H  8.5927312211   -1.3137491917   0.804569242
 H  6.8895469249   -0.1171559837   1.8004913477
 H  4.5897506958   -0.3057518572   2.657999241
