57

 C  4.0096039482   -2.0307931587   6.5791404763
 O  3.3442772005   -0.935627324   5.9678377841
 C  2.3025608018   -1.200757254   5.1443904293
 C  1.685768544   -0.087982129   4.5606250515
 C  0.6143235788   -0.2618103546   3.7026714767
 C  0.1278797265   -1.5367095802   3.4207545902
 C  0.7355457934   -2.6451140418   4.0067172681
 C  0.2798169236   -4.0262877077   3.7161359242
 N  1.2395597039   -4.9408411402   3.5876870771
 C  0.9533496537   -6.2086978181   3.2999694613
 C  2.1129253045   -7.1297714903   3.2170818312
 C  3.3019206582   -6.6639243817   2.6573009145
 C  4.400751345   -7.5136812367   2.5774633157
 C  4.3275211826   -8.8100184873   3.0600954401
 C  3.1416112849   -9.2746567837   3.6367901811
 O  3.1618169515   -10.5489416719   4.094349778
 C  1.9617804471   -11.0861401355   4.6310118398
 C  2.0338761791   -8.4343177737   3.7181597566
 C  -0.3784631663   -6.6121765613   3.0685634525
 C  -0.6954199905   -7.9301440113   2.6034365788
 N  -0.9595596984   -8.985405469   2.210304429
 C  -1.4209458166   -5.6969997919   3.2508467392
 C  -2.8434493868   -6.1142757764   3.1053639613
 C  -3.4107824724   -6.8758333581   4.09902404
 C  -4.7616283889   -7.2774614567   4.0216040825
 C  -5.5229889709   -6.9161262435   2.9442924826
 C  -4.9705017115   -6.1424943987   1.8916918802
 C  -5.7485232535   -5.7738948928   0.7640670144
 C  -5.2054877931   -5.0359453615   -0.2530403044
 C  -3.8519712868   -4.6347443535   -0.1900333599
 C  -3.0738280085   -4.9729310083   0.8859152819
 C  -3.6098566171   -5.7301651829   1.9606521556
 C  -1.0782383082   -4.3869259372   3.6065393242
 C  -2.1305522686   -3.4619451568   3.9065872024
 N  -2.9965453116   -2.7401695823   4.1648442495
 C  1.8339679949   -2.4791048006   4.8603678347
 H  4.8026778217   -1.5974189479   7.1896428772
 H  4.4530821982   -2.6980089799   5.8317504752
 H  3.3315848441   -2.6036912412   7.2215137277
 H  2.068149085   0.9010099323   4.7912250136
 H  0.1517175981   0.6042200682   3.2400150571
 H  -0.6948463818   -1.6570900082   2.7259465526
 H  3.3573505298   -5.6497113035   2.2795946436
 H  5.324948657   -7.1599924466   2.1312117178
 H  5.1782911904   -9.4812181737   3.0040282357
 H  1.6526868704   -10.552175397   5.5365238069
 H  1.1484384202   -11.0585445194   3.8968922466
 H  2.1839410401   -12.1232636662   4.8849364858
 H  1.1255719931   -8.7777139669   4.1941345197
 H  -2.8164484031   -7.1628142653   4.9610009319
 H  -5.1867642855   -7.8715304909   4.8239725737
 H  -6.5639246854   -7.2188567759   2.8751851527
 H  -6.7861561069   -6.0930955457   0.7250496892
 H  -5.8092980958   -4.7594774632   -1.1117506436
 H  -3.4254947721   -4.0558482894   -1.0034104364
 H  -2.0340501602   -4.6646376481   0.9145016315
 H  2.2985978704   -3.3559650597   5.2911861009
