61

 C  -1.0969383414   0.4678615428   1.392831112
 O  0.018006168   1.3141436518   1.6321087038
 C  1.00082627   0.8592199912   2.445180275
 C  2.1087504795   1.6983202805   2.598445836
 C  3.1567161785   1.3181454993   3.4206282456
 C  3.1224071664   0.1028688517   4.0972750113
 C  2.0260953019   -0.7427576327   3.9339481873
 C  2.0017035726   -2.0326084135   4.6656694878
 N  2.4928922998   -2.0070000469   5.9028270927
 C  2.4920942191   -3.0978361465   6.6666790218
 C  3.0986553612   -2.9474212216   8.0115481421
 C  2.8963019838   -1.7603315708   8.7138903984
 C  3.4641822468   -1.6054253119   9.974698222
 C  4.2361487716   -2.6126500664   10.5301058482
 C  4.4539417027   -3.7978497054   9.8209343006
 O  5.2297460772   -4.7238368079   10.4327402612
 C  5.4284766087   -5.9673777549   9.776392817
 C  3.8882371422   -3.9651071918   8.5593346745
 C  1.9147618034   -4.2997920657   6.2092028077
 C  1.7338791799   -5.4202572595   7.0836418092
 N  1.5639775382   -6.3254309947   7.783554726
 C  1.4443151751   -4.3891399484   4.891825245
 C  0.8642546573   -5.6481820042   4.3582762831
 C  -0.4799658415   -5.6838456673   4.0384159087
 C  -1.1230722756   -6.8462171815   3.5497170355
 C  -0.3801204785   -7.9840927062   3.3747330922
 C  0.9947448807   -7.9513812437   3.6845240823
 C  1.6234823656   -9.1894110048   3.4367919249
 C  2.9668445527   -9.3079920351   3.6792757553
 C  3.6721049963   -8.1771821933   4.1653440658
 C  3.0594216795   -6.9683077901   4.4085222486
 C  1.6666740935   -6.8190561489   4.1757008093
 C  0.5934216398   -10.1691572649   2.917794444
 C  -0.7414071592   -9.3662438326   2.8796582593
 C  1.5227802002   -3.2339727741   4.1027581861
 C  1.1646027866   -3.3166955153   2.7174646633
 N  0.8960063505   -3.3928085497   1.5948522326
 C  0.9564456419   -0.3605687844   3.1160622398
 H  -1.729398414   0.9981481828   0.6799048191
 H  -1.6657969206   0.2844798585   2.3111694753
 H  -0.7858687549   -0.489701232   0.9598713637
 H  2.1247895097   2.643760583   2.0661489827
 H  4.0131492291   1.9753242648   3.5346678972
 H  3.9419719637   -0.1971694688   4.7397157488
 H  2.2908867444   -0.9740698332   8.2782721651
 H  3.2999365039   -0.6881500366   10.5314351244
 H  4.6840568146   -2.502776543   11.5123503254
 H  4.4758276222   -6.4731153331   9.5819634644
 H  5.9724829328   -5.8410718432   8.8334729949
 H  6.0271413229   -6.5740195659   10.4568726802
 H  4.0825057529   -4.8640454579   7.9897690831
 H  -1.0741558864   -4.786322364   4.1837516905
 H  -2.1850473168   -6.8130567969   3.3264931121
 H  3.498523193   -10.2387629794   3.5041836005
 H  4.7385375682   -8.2699330676   4.3494577556
 H  3.6493755288   -6.1321263989   4.769515396
 H  0.5167769579   -11.0447005547   3.5701719407
 H  0.8665301708   -10.5406568467   1.9250961659
 H  -1.5055036444   -9.8236274483   3.5161509398
 H  -1.1591958339   -9.3250992397   1.8688416896
 H  0.086489961   -0.9976008621   3.031030129
