63

 C  -2.0009351251   -0.6059818358   -0.7354454864
 O  -1.5909862648   -0.8241582021   -2.0771733227
 C  -1.017429902   0.2060804233   -2.7435099051
 C  -0.7900689583   1.4705475717   -2.1985012492
 C  -0.188718623   2.4527493831   -2.9811100278
 C  0.1742378917   2.2033299448   -4.2958794375
 C  -0.0605758966   0.9360433445   -4.8424714207
 C  0.3371278544   0.6025282532   -6.2319524593
 N  0.8730194757   -0.602572944   -6.4131334777
 C  1.2977393759   -0.9982246195   -7.6121314616
 C  1.8448654531   -2.3752666246   -7.6832338723
 C  1.5848733163   -3.2127837897   -8.766087408
 C  2.0986706469   -4.5080055137   -8.7669359632
 C  2.8665257068   -4.9649615667   -7.7105932661
 C  3.1221251723   -4.1280136289   -6.6180931286
 O  3.879633166   -4.6596802059   -5.6296461334
 C  4.153428846   -3.8573896467   -4.4906990129
 C  2.6040220179   -2.8374565294   -6.6000777031
 C  1.2410877014   -0.126546456   -8.7189719477
 C  1.8235329686   -0.4675088651   -9.9830259951
 N  2.3039351589   -0.7140320166   -11.0057557946
 C  0.6363283705   1.1276843569   -8.5828281445
 C  0.5136491046   2.0581792606   -9.7433012415
 C  -0.6139425581   1.9736730858   -10.5797340016
 C  -1.6679512838   1.0272745789   -10.3723100653
 C  -2.7427961164   0.9820427882   -11.2082921702
 C  -2.8489870357   1.875704749   -12.3120631101
 C  -1.8693837014   2.7913463677   -12.5435937262
 C  -0.7242422952   2.8735933741   -11.6915069631
 C  0.2825563536   3.8083940559   -11.921220978
 C  1.4014453566   3.8951021948   -11.0960368502
 C  2.4310370047   4.8564619169   -11.3404620405
 C  3.5219920435   4.9343174776   -10.5309702376
 C  3.6507882131   4.0504187323   -9.4218567352
 C  2.6921540456   3.1202326762   -9.1535833062
 C  1.5277161308   3.0042916979   -9.9786996225
 C  0.1528870097   1.4806589326   -7.3186946516
 C  -0.5535548856   2.7195651474   -7.1784329521
 N  -1.1378154229   3.7136816957   -7.0896265755
 C  -0.64158942   -0.058169462   -4.0611098626
 H  -2.4338120832   -1.5480236154   -0.3969903723
 H  -2.758334116   0.1832030539   -0.6713971034
 H  -1.1514647627   -0.3479194479   -0.0934748759
 H  -1.0687703392   1.6959114076   -1.1765287125
 H  0.00288263   3.4293712585   -2.5477336259
 H  0.6649099131   2.9759565111   -4.8762886991
 H  0.9630136669   -2.8814774628   -9.58925944
 H  1.8899088322   -5.1679992442   -9.6029342257
 H  3.2755303543   -5.9700728017   -7.7050163448
 H  4.7123751722   -2.9545722498   -4.7611578894
 H  3.2319224241   -3.5725752457   -3.970819065
 H  4.7638756276   -4.47344449   -3.8293937662
 H  2.779291723   -2.174084379   -5.7636500169
 H  -1.607412117   0.3383871215   -9.5368241665
 H  -3.5314567379   0.2567176396   -11.0336387994
 H  -3.7151789622   1.8198434778   -12.9637784353
 H  -1.9352878049   3.4807568526   -13.3804891726
 H  0.1930747583   4.4871544253   -12.765319125
 H  2.3179440354   5.5228844423   -12.1907805008
 H  4.2991816575   5.666982585   -10.7241038281
 H  4.5264132682   4.1216170214   -8.7840430437
 H  2.8106235368   2.4561839278   -8.3043470702
 H  -0.8171915723   -1.0466708902   -4.4697500142
