61

 C  4.1449041834   -1.7198393861   6.1954575563
 O  3.477311336   -0.7103640963   5.4534140355
 C  2.4423191143   -1.0787160743   4.6617227057
 C  1.8223734173   -0.0470492633   3.9471283785
 C  0.7575462381   -0.3280184031   3.1095733784
 C  0.2807307371   -1.6305510586   2.9774966858
 C  0.8916992518   -2.6575781171   3.6936483308
 C  0.4488381348   -4.0673033617   3.560006497
 N  1.4193994974   -4.9769620869   3.5091402106
 C  1.1417645774   -6.270010672   3.35521184
 C  2.3114682284   -7.1819823411   3.3355757955
 C  3.4802598276   -6.7628227279   2.7013731474
 C  4.587261896   -7.6054366285   2.6787090455
 C  4.5418409126   -8.8480101614   3.2893431998
 C  3.3761952547   -9.2645327775   3.9395696549
 O  3.4219680466   -10.4876945256   4.5189227265
 C  2.2409663416   -10.9800422272   5.135106816
 C  2.2613298221   -8.4303085743   3.9663409981
 C  -0.1876892139   -6.7106728815   3.1890438136
 C  -0.472866494   -8.0690695021   2.8321769203
 N  -0.7050145652   -9.1584663927   2.5200257277
 C  -1.2441931005   -5.7950081541   3.3004204343
 C  -2.6607392733   -6.2252028404   3.1977777568
 C  -3.1583709404   -7.2263969724   4.0350699443
 C  -4.4897531975   -7.6072500332   3.9330727552
 C  -5.3257110891   -7.0001500548   3.0045592514
 C  -4.8456844644   -5.996220552   2.1575665911
 C  -5.7375328142   -5.3301046787   1.1747622929
 C  -5.6196620891   -3.9586584204   0.9234660296
 C  -6.4555649264   -3.3303000784   0.0079799259
 C  -7.4249915727   -4.0613414693   -0.6718444863
 C  -7.5529502549   -5.4253526218   -0.4281556523
 C  -6.717042853   -6.0542373556   0.4871743898
 C  -3.505230863   -5.6211008422   2.2657608531
 C  -0.9069230459   -4.4506251953   3.5168222777
 C  -1.9468319159   -3.4953881365   3.7620313392
 N  -2.792095326   -2.736224442   3.979859776
 C  1.9833791118   -2.3850514775   4.5280933645
 H  4.9309313756   -1.2112363073   6.7549666326
 H  4.5976632214   -2.4687632842   5.5362886344
 H  3.4655254709   -2.2161952789   6.8972300863
 H  2.1975138277   0.9647280575   4.0611649478
 H  0.2926436699   0.4743707552   2.5455278163
 H  -0.5368791503   -1.8384089968   2.2970624947
 H  3.5136907557   -5.7911380519   2.2226963507
 H  5.4957299382   -7.2890713727   2.1757713613
 H  5.3992599433   -9.5130090179   3.2778299798
 H  1.9499698076   -10.3644829404   5.9936697158
 H  1.4091726356   -11.0281497102   4.4230460681
 H  2.4793408129   -11.9866346533   5.4806028098
 H  1.3683965949   -8.7315426279   4.4967378539
 H  -2.513897519   -7.6899698334   4.774629171
 H  -4.8820315558   -8.3750332571   4.5922704632
 H  -6.3692499968   -7.2935436689   2.9509583151
 H  -4.8828723337   -3.3750311995   1.4678440729
 H  -6.353865982   -2.2635924404   -0.1682032209
 H  -8.078234507   -3.5702623136   -1.3867420864
 H  -8.3028908944   -6.0054770373   -0.9575919543
 H  -6.8134417806   -7.1224112021   0.6564537637
 H  -3.1061117529   -4.867567394   1.5948961583
 H  2.4501494894   -3.2020536413   5.0623462586
