61

 C  -0.3691820098   -0.5091299524   0.3537522556
 O  -0.3342440281   -1.7345881485   -0.3623527628
 C  0.0018374432   -1.6965791795   -1.6739252242
 C  0.3097912525   -0.5311209091   -2.3769994736
 C  0.64471082   -0.6167592496   -3.7258427422
 C  0.6645480877   -1.8355419292   -4.3866303675
 C  0.3490591201   -3.0029857025   -3.6811092082
 C  0.3890933423   -4.3381653955   -4.3262946999
 N  0.8877727502   -5.3274300305   -3.5867042049
 C  0.9985564579   -6.5619950299   -4.0722578514
 C  1.5246255101   -7.5831313603   -3.1337852783
 C  0.9971697666   -8.8718921836   -3.0895161083
 C  1.5021463279   -9.7858326549   -2.1670210002
 C  2.522465054   -9.4278179162   -1.3039163614
 C  3.048309076   -8.1311161541   -1.3412426066
 O  4.0413478439   -7.8708938582   -0.4581142095
 C  4.6041825897   -6.567661952   -0.4485253223
 C  2.5435841957   -7.2061181498   -2.249268043
 C  0.6524373085   -6.8456941286   -5.4095764529
 C  0.9386419585   -8.1192425557   -6.0015653851
 N  1.1905639071   -9.1335508862   -6.4971430716
 C  0.0706937334   -5.8498505178   -6.2043544233
 C  -0.3907518843   -6.1426272399   -7.5857295224
 C  -1.4668919937   -6.9769417122   -7.7616583855
 C  -1.983870139   -7.2709752115   -9.0387164833
 C  -1.3967214779   -6.7214260321   -10.153073451
 O  -1.8127482401   -6.9317883718   -11.4177320871
 C  -2.9346928281   -7.7795394091   -11.6258550109
 C  -0.2572324014   -5.8624645668   -10.0240506377
 C  0.3705222447   -5.3086811774   -11.1655425169
 C  1.4707339794   -4.5011273461   -11.0371070181
 C  1.9925891491   -4.2204923977   -9.7578605497
 C  1.4018571674   -4.7427861587   -8.6360205335
 C  0.2541215225   -5.5709501312   -8.7308702663
 C  -0.0879026538   -4.5811973453   -5.6290970114
 C  -0.792323977   -3.5760847217   -6.3679502887
 N  -1.3844158177   -2.785623421   -6.9699116137
 C  0.0319992498   -2.9287225295   -2.3280140585
 H  -0.6548963663   -0.7660658814   1.3744423422
 H  -1.1107580782   0.1797065776   -0.0657450497
 H  0.6130135706   -0.0236919067   0.3652373881
 H  0.2975894233   0.4350617368   -1.887928323
 H  0.9007644082   0.2899477497   -4.264993989
 H  0.9547244316   -1.8786678126   -5.4298912828
 H  0.1801789472   -9.1604382787   -3.7403782998
 H  1.0875556361   -10.7878814177   -2.1209832769
 H  2.9266826822   -10.133754105   -0.5857737448
 H  5.0651043552   -6.323227722   -1.4119844662
 H  3.8534099402   -5.8089124231   -0.2014964731
 H  5.3730422843   -6.5780522756   0.3249873867
 H  2.9254562063   -6.194652798   -2.2926924184
 H  -1.9531295324   -7.4135237118   -6.8945542129
 H  -2.8429313991   -7.9243394411   -9.1188153563
 H  -2.7385755884   -8.7924432628   -11.2589622631
 H  -3.8291393698   -7.3790889783   -11.1372475747
 H  -3.0920155994   -7.8081530398   -12.704345558
 H  -0.0333699369   -5.5382407438   -12.144254532
 H  1.9453818198   -4.0817914441   -11.918653816
 H  2.8709626764   -3.5899298724   -9.6603713722
 H  1.8245570106   -4.5277353184   -7.6605582411
 H  -0.2021899284   -3.8268700145   -1.7681948905
