74

 C  3.3973781537   0.3039959586   6.8965463345
 O  2.9682095541   0.8613779609   5.6630347926
 C  2.2352629952   0.0824833441   4.8322366044
 C  1.779816188   0.693028691   3.660122561
 C  1.0321462978   -0.0331057445   2.7476298838
 C  0.7246641309   -1.3691449127   2.9857959314
 C  1.163393826   -1.9753989852   4.1618658901
 C  0.82761623   -3.4036337036   4.3952480204
 N  0.9598572534   -4.2049416062   3.3395428013
 C  0.6970240901   -5.5076336745   3.4332468358
 C  0.8950052075   -6.2963154946   2.1910336458
 C  0.4960908391   -5.7449427578   0.9744680992
 C  0.6780952115   -6.4700239216   -0.1990869454
 C  1.2637730804   -7.7249771421   -0.1702469022
 C  1.6802442413   -8.2734259898   1.0464403706
 O  2.2535646302   -9.4986771864   0.9813114803
 C  2.643922455   -10.1204857491   2.1967583018
 C  1.4983844647   -7.5585184156   2.2280880833
 C  0.2373193299   -6.0712370844   4.6401436146
 C  -0.1737721333   -7.443024602   4.7002649359
 N  -0.5254053442   -8.5441510948   4.745477946
 C  0.0735433733   -5.2625927074   5.7751633501
 C  -0.4264150833   -5.8241276022   7.0529150411
 C  0.2821745187   -6.8696292561   7.677954678
 C  -0.1451257759   -7.4233422076   8.8715071217
 C  -1.319641772   -6.9244441638   9.4370192595
 C  -2.0471472932   -5.8798303997   8.8231306868
 C  -1.5929353139   -5.3265289467   7.6309440469
 C  -3.1941440543   -5.627151439   9.6687525161
 C  -4.2637975749   -4.7335833077   9.6006169965
 C  -5.2172985678   -4.7509336349   10.6068751048
 C  -5.1070476453   -5.6496813575   11.6781092708
 C  -4.0525303407   -6.5465628609   11.7687499521
 C  -3.0986590932   -6.5300294617   10.7503873429
 N  -1.9604186268   -7.3105488416   10.5946335129
 C  -1.5258291471   -8.3903619233   11.4608809441
 C  -0.3759560686   -8.0316136741   12.3816618103
 C  -0.2946040871   -6.7788988208   12.9901558025
 C  0.7486033922   -6.4847121582   13.8614764511
 C  1.7221620018   -7.4406394101   14.1380346064
 C  1.6476609542   -8.6915650385   13.5344967956
 C  0.6059929161   -8.9820077463   12.6585764923
 C  0.3846223648   -3.9013062616   5.6374121292
 C  0.2196648624   -3.0294145636   6.7629513378
 N  0.0852180061   -2.328219879   7.6731083817
 C  1.9303064825   -1.2536015824   5.0828903287
 H  3.9133858708   1.1061413184   7.425553672
 H  4.0917424472   -0.5292372688   6.7406084141
 H  2.5473420501   -0.0386651594   7.4974970056
 H  2.0264979202   1.7350325489   3.4846540792
 H  0.682418987   0.447494368   1.8392550306
 H  0.1390705063   -1.9368657631   2.2718380355
 H  0.0377103156   -4.7631247727   0.951765778
 H  0.3578365995   -6.0504412092   -1.147660462
 H  1.412226107   -8.2984946845   -1.0793948945
 H  3.4336880553   -9.55330191   2.7020937647
 H  1.7917422841   -10.2422638973   2.8751219706
 H  3.0288973468   -11.1030680856   1.9213481714
 H  1.8468893999   -7.9627949977   3.1689006128
 H  1.1975168033   -7.2357211094   7.2238206343
 H  0.4235318743   -8.2130467094   9.3497533034
 H  -2.1518149223   -4.5316305573   7.1468114545
 H  -4.3453014258   -4.0363200479   8.7718765208
 H  -6.0555327169   -4.0623590435   10.5692990834
 H  -5.8624881521   -5.6436537046   12.4581606282
 H  -3.9762682378   -7.2302960221   12.6073841112
 H  -2.3921439456   -8.7075139519   12.0471378511
 H  -1.2451212538   -9.2433544666   10.8362058049
 H  -1.0496199709   -6.0268447721   12.7806321772
 H  0.8006033815   -5.5047984722   14.3269102381
 H  2.536604361   -7.2095220725   14.8180380213
 H  2.4057235768   -9.4420398443   13.7384147762
 H  0.5551942766   -9.9578634158   12.1823319992
 H  2.3069193328   -1.7413369424   5.9717259733
