63

 C  4.2121164337   4.4320664695   2.6631495957
 O  2.8906556872   4.1952679602   2.2016117255
 C  2.2370224034   3.1049575517   2.6681069897
 C  0.9347049337   2.9217485466   2.1887387471
 C  0.1876739179   1.8370951824   2.6124041723
 C  0.7220698704   0.9095333088   3.5044853284
 C  2.0207872219   1.0858725131   3.9763901114
 C  2.6273089065   0.1505897162   4.9558413559
 N  3.3359472112   0.714048964   5.9319818682
 C  3.898344157   -0.022182292   6.8881088052
 C  4.6841090754   0.728381988   7.8986784395
 C  4.1983343286   1.9558238899   8.3472933505
 C  4.9243670853   2.6763085603   9.2905968078
 C  6.127643301   2.1915955487   9.7764947391
 C  6.6249412994   0.9686618162   9.3162059689
 O  7.8124362484   0.5756170213   9.8348439765
 C  8.3277986885   -0.6883477241   9.4428909598
 C  5.9053006904   0.2374060295   8.3741069462
 C  3.7195093121   -1.4204339641   6.924205066
 C  4.2316908689   -2.2071019572   8.0071698886
 N  4.6336373672   -2.8513453239   8.8796567629
 C  3.0258044494   -2.058580939   5.8873527494
 C  2.8583248914   -3.5354680214   5.8645063104
 C  2.1131013314   -4.1738208392   6.8585685054
 C  1.9495410463   -5.5495257478   6.8360898894
 C  2.5382359695   -6.3161691958   5.8217470247
 C  2.3728899649   -7.7354271349   5.7997468504
 C  2.230950045   -8.9363867597   5.7821938509
 C  2.0617338145   -10.35632567   5.7626234952
 C  1.2829773648   -10.9891927013   6.7415714531
 C  1.1210456192   -12.3675632855   6.7190078358
 C  1.7304823131   -13.1288390548   5.7252505043
 C  2.5051817714   -12.5063631798   4.750121455
 C  2.6724986807   -11.1285047075   4.7646717009
 C  3.2896142794   -5.672954138   4.8292978363
 C  3.442591136   -4.2958860801   4.8489088273
 C  2.4946442647   -1.250223065   4.873624762
 C  1.8326362744   -1.8690711857   3.763664585
 N  1.3140303652   -2.3853592831   2.8680980492
 C  2.7766499382   2.1928256704   3.5690630243
 H  4.5432278216   5.3468324088   2.1700835221
 H  4.8847115471   3.6112243364   2.3905018819
 H  4.2371850302   4.5774929386   3.7487711954
 H  0.5294927214   3.6464948183   1.4901242436
 H  -0.8277051796   1.7109572285   2.2501423365
 H  0.114092633   0.080751422   3.8476033568
 H  3.2566885075   2.3336723609   7.9664060754
 H  4.544935412   3.6268597669   9.6523510428
 H  6.7025505401   2.7451959134   10.5116633794
 H  7.6263558262   -1.4967789302   9.6786711471
 H  8.5631029926   -0.7112246335   8.3729018618
 H  9.2459870729   -0.8289173025   10.0143918161
 H  6.3014329488   -0.6918352392   7.9879240855
 H  1.6477724992   -3.59053061   7.6465847115
 H  1.3621500141   -6.0384581451   7.605687068
 H  0.8094395779   -10.3925150681   7.5144023489
 H  0.5160480412   -12.8497047877   7.4806353623
 H  1.6017338039   -14.2067517922   5.7106987752
 H  2.981727583   -13.0971636516   3.97396434
 H  3.2756929154   -10.6400310902   4.0063291679
 H  3.7525655004   -6.2590248485   4.0428080077
 H  4.0299538678   -3.8096820886   4.0766486646
 H  3.7769557955   2.3161885068   3.9628152951
