67

 C  -1.8201928879   0.7522027184   -0.6372504703
 C  -0.4694005791   1.2595973518   -0.1499306697
 N  0.2776821887   1.963670586   -1.180881302
 C  1.116126483   1.3747512717   -2.1154022038
 C  1.4742590257   0.0333061037   -2.2581450543
 C  2.3508687094   -0.2931524009   -3.2824341791
 C  2.8619403851   0.6830006011   -4.1509816997
 C  2.499634387   2.0136759156   -4.0083014067
 C  1.6186919455   2.3671853848   -2.9851828035
 C  1.0348447244   3.6184463728   -2.5530329427
 C  1.1361664652   4.9299351409   -3.0037465955
 C  0.4305115684   5.9336018552   -2.342599818
 C  0.5282802483   7.3374514505   -2.8081603741
 C  0.1711437803   7.6998063118   -4.1160032535
 C  -0.383874905   6.7066510021   -4.9879671217
 N  -0.8555274743   5.9072106357   -5.6781448676
 C  0.2551688382   9.0462377741   -4.5218426597
 C  -0.0923196496   9.5026038611   -5.8914073706
 C  0.3301039633   8.8055298549   -7.0209937467
 C  0.0077547268   9.2938014969   -8.2857111395
 C  -0.7312757289   10.4547828437   -8.4277678676
 C  -1.1509342891   11.160226332   -7.2939212196
 O  -1.8664878736   12.2858175848   -7.5287998762
 C  -2.3079985224   13.0438539746   -6.4126359281
 C  -0.8234013403   10.6895973124   -6.0264783892
 N  0.6383003033   9.9987349258   -3.6730093573
 C  0.9972182431   9.6971973419   -2.426071292
 C  1.4130389903   10.847441215   -1.5822510433
 C  0.6622873146   12.020720023   -1.6366670785
 C  1.0349376493   13.109921198   -0.8549648523
 C  2.1508171145   13.043254328   -0.0369542736
 C  2.9154767073   11.8738391204   0.006117107
 O  3.9951895064   11.8988399978   0.8233391049
 C  4.7717964937   10.7159746271   0.9422333938
 C  2.5490636304   10.7754550519   -0.7688180971
 C  0.9598403677   8.3683119609   -1.9587624486
 C  1.3370116857   8.0508580789   -0.6130494814
 N  1.6435417178   7.7908010666   0.4716386624
 C  -0.3841228028   5.6117437676   -1.238185181
 C  -0.5096702643   4.3117608462   -0.7831208112
 C  0.2126467078   3.314362192   -1.4423499921
 H  -2.453175205   1.5805802854   -0.9699800696
 H  -2.3378691159   0.2298217115   0.1734605496
 H  -1.6998782845   0.0545041927   -1.4716088289
 H  -0.5951333775   1.9420705737   0.693899694
 H  0.1497809873   0.431201311   0.2032777396
 H  1.081850518   -0.7311842673   -1.5961062972
 H  2.6455563415   -1.3299715321   -3.4145225072
 H  3.5451625233   0.3906798037   -4.9422148327
 H  2.8928203455   2.7701680444   -4.6812984813
 H  1.7710186428   5.1710388892   -3.8509089997
 H  0.9310940422   7.9084778942   -6.9267045478
 H  0.3441066145   8.760762359   -9.1694025192
 H  -0.9918900816   10.8400565965   -9.408179472
 H  -2.9801597128   12.4609580752   -5.7730973428
 H  -1.4638464061   13.4083123791   -5.8166497438
 H  -2.8519410589   13.8950453638   -6.8237931272
 H  -1.1286615558   11.2216132181   -5.1350670774
 H  -0.2113100965   12.0735416584   -2.2762115233
 H  0.4462203932   14.0214949933   -0.8842387355
 H  2.4516710404   13.8865081773   0.5761673852
 H  4.1664496607   9.8739507396   1.2969486859
 H  5.2444688946   10.4489140625   -0.0096261751
 H  5.5466163568   10.9377299082   1.6770481427
 H  3.154013671   9.8790972687   -0.7639812188
 H  -0.9464768652   6.3981401154   -0.7451773549
 H  -1.1564358259   4.0835511016   0.0567652572
