71

 C  -0.8046094663   -0.6284425413   0.0388002018
 O  -0.6230512031   -1.6064138836   -0.9740843427
 C  -0.1776855897   -1.194380054   -2.1851210165
 C  0.117113428   0.1304619309   -2.5094023066
 C  0.5745559405   0.4337268833   -3.789290916
 C  0.7284461411   -0.5529661615   -4.751074531
 C  0.4242888931   -1.8805144463   -4.4261928239
 C  0.6046597815   -2.9825458778   -5.4032284194
 N  1.105897458   -4.1148781116   -4.9146697939
 C  1.3422968881   -5.1580893071   -5.7078527763
 C  1.8596949686   -6.3755870933   -5.0363532306
 C  1.4190714935   -7.6481291492   -5.3938870186
 C  1.9060813169   -8.7580253972   -4.7067206155
 C  2.824251823   -8.6080305666   -3.6824839407
 C  3.262920595   -7.3299777409   -3.3171585509
 O  4.1594898691   -7.2797878605   -2.3034306871
 C  4.6269415412   -6.0060646336   -1.8858456501
 C  2.7736990279   -6.2135298874   -3.9872146604
 C  1.1323464101   -5.0727497273   -7.0988031111
 C  1.5897222722   -6.110804916   -7.9741534072
 N  1.9853687377   -6.929791971   -8.6889232679
 C  0.5441797938   -3.9226276441   -7.647978656
 C  0.2514442312   -3.818302435   -9.0963039366
 C  -0.5509212317   -4.7920820238   -9.7243394041
 C  -0.8516459475   -4.7258929924   -11.0726253508
 C  -0.3226324362   -3.6644861959   -11.8079113783
 C  0.4952092854   -2.6865039684   -11.2004975884
 C  0.772435151   -2.7608965817   -9.8399840837
 C  0.887274582   -1.7644865918   -12.2448324879
 C  1.6693541012   -0.6087110651   -12.2644141734
 C  1.8380770348   0.0650730406   -13.4639606682
 C  1.230443042   -0.4043499503   -14.6378014811
 C  0.4493419972   -1.5506186478   -14.6426677318
 C  0.2898721716   -2.227855383   -13.4343842811
 N  -0.444090096   -3.3810879528   -13.158232361
 C  -1.18638174   -4.1410878586   -14.1053120033
 C  -0.5399494216   -4.6969135803   -15.2076908575
 C  -1.2701273122   -5.431128017   -16.1352671553
 C  -2.6362501311   -5.6266279883   -15.9559988432
 C  -3.2753358821   -5.0769761309   -14.8488469244
 C  -2.5559467394   -4.3257631498   -13.9263382023
 C  0.250176335   -2.873741053   -6.7628340454
 C  -0.4824215011   -1.738266409   -7.2396011503
 N  -1.1011645799   -0.8383364681   -7.6209807802
 C  -0.0141394566   -2.1953416139   -3.1435299111
 H  -1.1587818761   -1.1687005555   0.9175569878
 H  -1.5534798058   0.1163517708   -0.252565107
 H  0.1364474842   -0.1226486022   0.2814838433
 H  0.0009201098   0.9225568145   -1.7799704776
 H  0.8202671716   1.4628256105   -4.0322452328
 H  1.1111632325   -0.2971280751   -5.7323074059
 H  0.6803769415   -7.7799595722   -6.1759550487
 H  1.5574578674   -9.7508508267   -4.9730684536
 H  3.213123417   -9.4664334683   -3.1444717015
 H  5.1480567345   -5.4849344952   -2.6966023464
 H  3.8067406254   -5.3792993927   -1.5186339158
 H  5.3275170095   -6.1951223591   -1.0715767966
 H  3.0880734898   -5.213735784   -3.7185893182
 H  -0.9620851476   -5.6041380007   -9.1334700622
 H  -1.4792057374   -5.4784508743   -11.5357220453
 H  1.4073849917   -2.0162873057   -9.3698795221
 H  2.1338645967   -0.2441658176   -11.3529567331
 H  2.4440829448   0.9649717175   -13.4976863154
 H  1.3718534475   0.1414307786   -15.5657743529
 H  -0.0191532924   -1.9043471367   -15.5542001294
 H  0.5291211097   -4.5571061178   -15.3301902906
 H  -0.7655427283   -5.8605677596   -16.9951570838
 H  -3.2020890866   -6.2064300083   -16.6785319345
 H  -4.3415332856   -5.2224038413   -14.7057729582
 H  -3.0513051524   -3.8769813781   -13.0714375568
 H  -0.2407366377   -3.2212341484   -2.8766317229
