81

 C  7.2318415061   4.3034690546   2.6145743334
 O  6.4097614154   4.7861598597   3.6651709618
 C  5.4936178687   3.9399276993   4.1970770136
 C  4.7026873554   4.4605840176   5.2263203079
 C  3.7456161111   3.6723286885   5.8403810961
 C  3.5436068541   2.3514647494   5.4307053765
 N  2.5300573974   1.5563305157   6.0468513602
 C  1.1994628404   2.0740649216   6.0464928537
 C  0.5927258677   2.4500739967   4.8448507911
 C  -0.6833712485   2.9846991601   4.8384281079
 C  -1.3910960744   3.1403680593   6.0345707314
 O  -2.636982454   3.6639642514   5.9242359111
 C  -3.3925132763   3.8414380835   7.1116633287
 C  -0.7956173762   2.7621192596   7.2380479579
 C  0.4967619739   2.2444494249   7.2355293087
 C  2.8281127952   0.3251763192   6.6249776105
 C  4.1390484771   0.0091016287   7.0226776379
 C  4.4296213726   -1.2132938974   7.6004948751
 C  3.4356101979   -2.1782167818   7.7965947109
 C  3.753820641   -3.4846211995   8.4080515688
 C  4.4223173838   -3.5762575121   9.6402915683
 C  4.6649190803   -2.3837056384   10.3964149086
 N  4.82818252   -1.4218983974   11.0182318716
 C  4.7640961315   -4.8392329015   10.1629464318
 C  5.5546957262   -5.0166518446   11.4060904257
 C  6.67061394   -4.2282304847   11.6787389056
 C  7.4011324673   -4.4574003806   12.8428858898
 C  7.0242828471   -5.4504637282   13.7297961065
 C  5.9073799812   -6.2478455947   13.4542913581
 O  5.6134645466   -7.1945476547   14.3770345099
 C  4.4900413317   -8.030477753   14.1430712344
 C  5.1793950386   -6.0383004431   12.2877147986
 N  4.360211321   -5.9600443698   9.5685225249
 C  3.6737057613   -5.9205945723   8.4279951828
 C  3.2604029364   -7.2367559974   7.8814147321
 C  4.1337438789   -8.3174062865   7.9977367191
 C  3.7574997947   -9.5598744163   7.4969519483
 C  2.5216015389   -9.7344778754   6.8960414804
 C  1.6377411567   -8.6562058747   6.7912317729
 O  0.4476352067   -8.9167971144   6.1997376962
 C  -0.4567104463   -7.8376925678   6.0153588436
 C  2.0048027773   -7.4076067954   7.2870637753
 C  3.4041903169   -4.69490043   7.7858315434
 C  2.8527293291   -4.6680795207   6.4636101987
 N  2.4315205994   -4.6471790724   5.3862023968
 C  2.1318451047   -1.8664950512   7.396041315
 C  1.8284076235   -0.6420981367   6.8291027384
 C  4.3231227053   1.842556625   4.3962952212
 C  5.3026434942   2.6207926651   3.7855124266
 H  7.8869322358   5.1311775006   2.3396021138
 H  6.637399692   4.0094128957   1.7422215541
 H  7.8421225472   3.4536319193   2.9404378818
 H  4.8612574093   5.4875797399   5.5389494014
 H  3.1420059997   4.0818812301   6.644211757
 H  1.1312742928   2.3246070516   3.9108263788
 H  -1.1573760393   3.2808630092   3.9082662805
 H  -3.5703095028   2.8874340339   7.6207392866
 H  -2.898798774   4.5343090857   7.8022613193
 H  -4.3481776119   4.2655150259   6.8006419359
 H  -1.3163836789   2.877873938   8.1807588297
 H  0.9609231555   1.9661113262   8.1765278295
 H  4.9350450486   0.7302586141   6.8834746634
 H  5.4543169182   -1.4240427021   7.8901685646
 H  6.9930032195   -3.4632829235   10.981811366
 H  8.2781859853   -3.8540514423   13.0548339628
 H  7.5829167626   -5.6323157794   14.6421563644
 H  3.5635929744   -7.4485984087   14.0816059805
 H  4.6116644762   -8.6182519852   13.2263535242
 H  4.4346984208   -8.7052810352   14.998145219
 H  4.3195361667   -6.6485188035   12.0449517325
 H  5.1005042731   -8.1789555386   8.4674460408
 H  4.4385045075   -10.4016844344   7.5745652879
 H  2.2174423415   -10.6989208887   6.5024502903
 H  -0.7966959869   -7.4309920055   6.9743518372
 H  -0.0059318683   -7.0358933989   5.4194466589
 H  -1.3115760358   -8.2500066511   5.4780970326
 H  1.3124880284   -6.5778924564   7.2395729989
 H  1.3333083248   -2.5871580612   7.542315864
 H  0.8069627295   -0.4347812079   6.5346538939
 H  4.1687975651   0.8213929918   4.0618616459
 H  5.895160086   2.1927226732   2.9862981356
