71

 C  1.2193384308   0.2129153762   2.6410631473
 O  0.6423966332   -0.8224353629   1.8594526065
 C  0.5172020742   -2.049241691   2.4192830085
 C  0.9165303798   -2.3720599325   3.7152481605
 C  0.7547965886   -3.6786341547   4.1735558291
 C  0.2052651554   -4.6591600843   3.3650671371
 C  -0.213810441   -4.3287737579   2.0697670497
 C  -0.7871467757   -5.392654895   1.2097190835
 N  -0.2051999856   -6.5863924065   1.3033042302
 C  -0.6181438366   -7.6129136723   0.5625093014
 C  0.0926276627   -8.8963345063   0.7818744379
 C  -0.5877591078   -10.1116876717   0.8137553609
 C  0.1220750851   -11.2858988241   1.0562132141
 C  1.4908355825   -11.255740954   1.2560635029
 C  2.1752292723   -10.034973166   1.230590914
 O  3.5118615167   -10.1018073788   1.4367224548
 C  4.2531006176   -8.8910925509   1.4193704917
 C  1.4751814719   -8.8546056971   1.0040625611
 C  -1.6484424768   -7.4523719664   -0.3859327747
 C  -1.9670421969   -8.4957327519   -1.3151263979
 N  -2.2147340062   -9.3196391253   -2.088144338
 C  -2.3256394135   -6.2284365649   -0.4767742502
 C  -3.4500969011   -6.0383464108   -1.4261414324
 C  -4.5847795217   -6.8489720299   -1.3482783683
 C  -5.6332293614   -6.6775394923   -2.2398680919
 C  -5.5602253171   -5.6877756338   -3.2193822658
 N  -6.6282092534   -5.5130640758   -4.1326091434
 C  -7.966121853   -5.3088997106   -3.795661959
 C  -8.5549410928   -5.1902262958   -2.5370691532
 C  -9.9228828631   -4.9639031119   -2.484710967
 C  -10.6928904152   -4.8528132361   -3.6511963643
 C  -10.0995210089   -4.960355218   -4.8996591836
 C  -8.7246573272   -5.1871931072   -4.9779489666
 C  -7.8009339811   -5.3301754348   -6.0837955207
 C  -7.9561534353   -5.3193998792   -7.4707279406
 C  -6.841556913   -5.5087435587   -8.2732911386
 C  -5.5783359705   -5.7142671996   -7.7006364096
 C  -5.3988857951   -5.728211702   -6.3248703744
 C  -6.5220830034   -5.5259582074   -5.5233321811
 C  -4.432282386   -4.8721288173   -3.3001065404
 C  -3.38353865   -5.0492680444   -2.4099374137
 C  -1.895578276   -5.1914265465   0.3626364366
 C  -2.6405671786   -3.9677708977   0.3974674217
 N  -3.2661706362   -2.9957430214   0.4359997631
 C  -0.0506443873   -3.0296040982   1.6010896895
 H  1.2257701724   1.0999790623   2.0065323073
 H  2.2471671525   -0.0304618758   2.9322587638
 H  0.6251982966   0.4157697788   3.5389489906
 H  1.3542192982   -1.6258979623   4.3669045975
 H  1.0684515546   -3.9262171658   5.1829700317
 H  0.0867917712   -5.6743397516   3.7254074619
 H  -1.662961226   -10.1500902682   0.6841123109
 H  -0.4044831915   -12.2342884865   1.0936296441
 H  2.0536137939   -12.1652691935   1.4391473322
 H  4.1775241142   -8.3890990621   0.4483794722
 H  3.9221523397   -8.2072858558   2.2088395247
 H  5.2914923928   -9.1721372542   1.5991015351
 H  1.9786144085   -7.8970001322   0.9896376665
 H  -4.6515002419   -7.6181646229   -0.5857799433
 H  -6.5057677235   -7.3190713447   -2.1834670897
 H  -7.9686649448   -5.2676831716   -1.6283983357
 H  -10.4047065182   -4.8691627408   -1.5162193448
 H  -11.7612756631   -4.6772769805   -3.5735811664
 H  -10.6922041307   -4.8658001332   -5.8048880082
 H  -8.9373302888   -5.168806853   -7.9115370216
 H  -6.9456571838   -5.5023346451   -9.353739059
 H  -4.7185521218   -5.86808574   -8.3457771751
 H  -4.4183128757   -5.8943408681   -5.8931600619
 H  -4.3805231409   -4.0947537884   -4.0542811632
 H  -2.5058516065   -4.4155728193   -2.4846131387
 H  -0.3289411419   -2.750890656   0.5911972393
