66

 C  2.60283741   -0.6815384544   1.3194911146
 O  1.8061829761   -1.6711769923   1.9529689276
 C  1.3952450122   -2.7281731026   1.2122528618
 C  1.703258922   -2.9181478018   -0.1336435855
 C  1.236904768   -4.0590767019   -0.7849845639
 C  0.4759574464   -5.0047449311   -0.1185499081
 C  0.1509424244   -4.8026000141   1.2288210539
 C  -0.6536733193   -5.8361526113   1.9310252772
 N  -0.290484378   -7.0967785565   1.7015927007
 C  -0.9340571836   -8.108217857   2.2834530974
 C  -0.4218464242   -9.4647554942   1.9641777154
 C  -0.0120858055   -9.7384991608   0.6600544827
 C  0.4769702337   -11.0025893843   0.3458816516
 C  0.571454908   -11.984993836   1.3179049934
 C  0.1755644125   -11.7088891383   2.6299555169
 O  0.3109705549   -12.7223773252   3.5182126219
 C  -0.1419787566   -12.5115365975   4.8472552503
 C  -0.3177530054   -10.4474204241   2.9552051704
 C  -2.0428504469   -7.8779834162   3.1218451053
 C  -2.8238700388   -8.9721520582   3.6192071872
 N  -3.467970529   -9.8539646049   4.0011990107
 C  -2.4649187554   -6.5649682888   3.3881446155
 C  -3.630345157   -6.2933369798   4.2558813789
 C  -3.6799121898   -6.7857891056   5.5618738614
 C  -4.7630825584   -6.5337043376   6.3875935651
 C  -5.8632689138   -5.7846687984   5.9282837787
 N  -6.9305590681   -5.5081662015   6.7603001912
 C  -6.869116428   -5.8904399324   8.1639165312
 C  -8.1820378447   -5.0522866831   6.2543524366
 C  -8.8707826636   -5.7791715315   5.2812680546
 C  -10.1038993698   -5.3336582374   4.8195082083
 C  -10.6705207137   -4.1721746169   5.3366624078
 C  -9.9910402207   -3.4528180005   6.3148408956
 C  -8.7488813695   -3.8846435351   6.7664546288
 C  -5.8109180805   -5.2931445874   4.607445899
 C  -4.7183618034   -5.5385711009   3.7994378005
 C  -1.7373667506   -5.5304050436   2.7767635352
 C  -2.1236961274   -4.1703016626   3.0094128989
 N  -2.4417950542   -3.0747103964   3.2004242298
 C  0.6159066473   -3.6710035002   1.8888447046
 H  2.8202163718   0.0642934054   2.0850867153
 H  2.065760102   -0.203702351   0.4926903951
 H  3.543871765   -1.1020004623   0.9477420871
 H  2.3019534566   -2.1973106137   -0.6766479176
 H  1.4797640117   -4.2045674819   -1.8331220017
 H  0.1217504491   -5.8917927214   -0.6312171503
 H  -0.0868387948   -8.9703468318   -0.1007610661
 H  0.7863161768   -11.2240120395   -0.670883602
 H  0.9521889119   -12.9739391248   1.0843857658
 H  0.4413730516   -11.7328844817   5.3513228131
 H  -1.2041620722   -12.2422207484   4.8694164038
 H  0.0009341383   -13.4593620835   5.3675574254
 H  -0.5929733273   -10.2169666085   3.9755748832
 H  -2.8487435411   -7.3645695893   5.9534020601
 H  -4.7505035729   -6.9304608306   7.3944596833
 H  -7.7411023184   -5.4864282571   8.676695467
 H  -6.8714436818   -6.9809351446   8.2911289487
 H  -5.9710183515   -5.4866365488   8.6414107469
 H  -8.4370260422   -6.6940524735   4.8902384453
 H  -10.6299824135   -5.9060545589   4.0613668761
 H  -11.6370446144   -3.8303074874   4.9795613043
 H  -10.4229299386   -2.5437139974   6.7223351806
 H  -8.2096107051   -3.3171071497   7.5188057377
 H  -6.6318983935   -4.7053628291   4.2161726743
 H  -4.7199779472   -5.1474790903   2.7868210949
 H  0.4110445203   -3.5033788978   2.9399417262
