79

 C  1.9383825378   0.9063755217   -0.4296301027
 O  2.0931356739   0.2617639427   -1.6850385507
 C  1.2526358435   0.6110236611   -2.6882233103
 C  0.2380556637   1.5623598979   -2.574287202
 C  -0.5669899471   1.8358338886   -3.6770900538
 C  -0.3698752679   1.1929626304   -4.8898941384
 C  0.6528710313   0.2441074524   -5.0035962663
 C  0.8913525921   -0.5032333693   -6.2641688755
 N  1.1261649966   -1.806419783   -6.1269942483
 C  1.3262671249   -2.5814960336   -7.1912496611
 C  1.6169274528   -4.0083168662   -6.9015874086
 C  2.6175308269   -4.7031090778   -7.5772424883
 C  2.8751035601   -6.0302457738   -7.2391892
 C  2.1441649798   -6.6620911489   -6.2488727254
 C  1.1433864061   -5.963221403   -5.5638752824
 O  0.4827229424   -6.6604672804   -4.609272316
 C  -0.5379919407   -5.9956452012   -3.8801265324
 C  0.886386574   -4.6338920797   -5.883127455
 C  1.2453851147   -2.0572253222   -8.4963871965
 C  1.3625287885   -2.9113390509   -9.6410750737
 N  1.4453421038   -3.5936960191   -10.5713002475
 C  1.0481315105   -0.6809294367   -8.6862996963
 C  1.006842304   -0.0838106803   -10.0425021028
 C  0.0377278108   -0.4780072466   -10.9691142547
 C  -0.0103787765   0.0870004746   -12.2322437112
 C  0.9303548167   1.0507565179   -12.6217786634
 N  0.8928828878   1.6137670274   -13.906513859
 C  1.3328728836   2.9490626716   -14.1290223419
 C  2.1812866443   3.23774479   -15.1976752885
 C  2.5810876192   4.550244183   -15.4215336118
 C  2.1580332064   5.572397448   -14.5809167675
 C  1.314881737   5.2969087835   -13.5008959581
 C  0.8638550147   6.3984587566   -12.5784781357
 C  0.9010330471   3.983118305   -13.294205525
 C  0.4194991807   0.8586625105   -15.016644716
 C  -0.4885500014   1.4240174465   -15.9115521
 C  -0.921745736   0.6865069082   -17.0074320354
 C  -0.472215578   -0.6126798896   -17.2088232396
 C  0.4311160448   -1.1953747843   -16.3157529486
 C  0.9111990931   -2.6077756727   -16.5213933837
 C  0.8771838454   -0.4440332212   -15.2309689864
 C  1.9094050742   1.4367633688   -11.6955386444
 C  1.9367349307   0.8868772283   -10.4250847429
 C  0.8922724861   0.1053291363   -7.5345224372
 C  0.7340499665   1.5229960692   -7.6706688927
 N  0.6169421367   2.6675760849   -7.78903734
 C  1.4480897858   -0.051577349   -3.9006986571
 H  2.7042145825   0.4833244564   0.2215519245
 H  0.9502662653   0.7120323823   0.0020003037
 H  2.0926082315   1.9879236722   -0.5128974746
 H  0.0651873949   2.0851545152   -1.6416371735
 H  -1.3667997513   2.5632636985   -3.5794952783
 H  -1.025244888   1.4044918518   -5.7266164158
 H  3.2167965465   -4.2145791874   -8.3365697631
 H  3.6615648132   -6.5729403745   -7.7540376964
 H  2.333663339   -7.6966864322   -5.9820872471
 H  -0.1410506565   -5.137730056   -3.326166377
 H  -1.3469893106   -5.6602749058   -4.5386376667
 H  -0.9295205286   -6.7294426751   -3.1746212951
 H  0.1256192018   -4.0681243915   -5.3615486974
 H  -0.7101622585   -1.2141690265   -10.6917147067
 H  -0.7894798629   -0.2168573284   -12.921506471
 H  2.5210875158   2.4392970523   -15.8488311479
 H  3.238348484   4.773217513   -16.2569084396
 H  2.4802793092   6.5940378102   -14.7629751144
 H  1.6689180756   6.6905438258   -11.8937598667
 H  0.5769146147   7.2939405885   -13.1386978082
 H  0.0104236158   6.0863871137   -11.9703547317
 H  0.2287301703   3.7567837848   -12.4721861855
 H  -0.8483801976   2.4346700939   -15.7499857264
 H  -1.6257172785   1.1302436903   -17.705329574
 H  -0.8206773425   -1.1813832301   -18.0666593314
 H  0.1424650778   -3.3304154488   -16.2227526215
 H  1.1426216657   -2.8000362435   -17.5737511155
 H  1.8069215858   -2.8159112775   -15.9297770394
 H  1.5954818687   -0.8751264285   -14.5401947738
 H  2.6597563185   2.1668656667   -11.9753355051
 H  2.7135038982   1.1966036807   -9.7330147184
 H  2.2343205089   -0.794442406   -3.9726258911
