53

 N  1.0519616841   -0.0209638931   1.1050886534
 C  2.1591013555   0.0016316495   0.7720938418
 C  3.5377702018   0.0119244198   0.3812723439
 C  4.2523132986   1.2182494679   0.2466840781
 C  3.6287658722   2.5550599311   0.4036860256
 C  4.3311271831   3.5497089734   1.0897831676
 C  3.7925380576   4.8189117958   1.2469114006
 C  2.5476719179   5.1025648556   0.6955849482
 I  1.7202173644   7.0452168504   0.9239982028
 C  1.8419525816   4.1349767187   -0.0078026737
 C  2.3837294821   2.8623824094   -0.1487797603
 N  5.5594488148   1.2166132055   -0.0104525376
 C  6.2234613937   0.0747956926   -0.1808573838
 C  7.6709184738   0.2134787177   -0.4766743802
 C  8.4064916113   1.1827551203   0.2109173453
 C  9.7585455616   1.3619350147   -0.0447785056
 C  10.3774375048   0.5783439898   -1.0127807439
 I  12.4452438014   0.8538195264   -1.4163141425
 C  9.6603891971   -0.3760342956   -1.7227995629
 C  8.3092500658   -0.5579826799   -1.4496765669
 C  5.5705666722   -1.168975021   -0.0665016793
 C  6.2896666616   -2.4023588195   -0.1924510948
 N  6.8669589111   -3.39991838   -0.2866679992
 C  4.2013789   -1.212690636   0.2268024643
 C  3.4920218378   -2.5056202991   0.412120136
 C  3.7741246565   -3.2763935232   1.5237370711
 C  3.1289272233   -4.5098238608   1.7854427952
 C  2.1909283411   -4.9635646926   0.8952214773
 C  1.90746221   -4.1869405772   -0.2468771647
 C  0.9349920694   -4.7901480136   -1.071556753
 C  0.5628089293   -4.1538522691   -2.2271190969
 C  1.1749314366   -2.9146591159   -2.5492414029
 C  2.1247487011   -2.3247094775   -1.7451675046
 C  2.5233693828   -2.9579209537   -0.5382190025
 C  0.5003245326   -6.0970316897   -0.4435125273
 C  1.3354142333   -6.2104329834   0.8676960907
 H  5.3036691613   3.3237215541   1.5127946451
 H  4.3428654145   5.5758697936   1.793563757
 H  0.8802699939   4.3621477264   -0.4527437621
 H  1.8349826046   2.1232512999   -0.7217917944
 H  7.9168660141   1.7954689467   0.9597677811
 H  10.3184876857   2.1082588693   0.5067099281
 H  10.1388591264   -0.9738757356   -2.4896988958
 H  7.7548482965   -1.2886466262   -2.0277239473
 H  4.5124842481   -2.91707415   2.2346310409
 H  3.3881141438   -5.0662463623   2.680919622
 H  -0.1807558165   -4.5757734984   -2.8970067026
 H  0.8831370315   -2.4151245189   -3.4685322611
 H  2.5685578451   -1.3797540396   -2.0418479469
 H  0.6907564824   -6.9406585952   -1.1144551148
 H  -0.5744217785   -6.0974177234   -0.235954191
 H  1.9550331425   -7.1127093707   0.874526314
 H  0.6922662828   -6.2649347275   1.7517919686
