54

 N  1.1520262241   -0.0373352504   0.3742536153
 C  2.2948639208   -0.0123248871   0.1992124473
 C  3.7156292386   0.0138044213   0.0116794656
 C  4.4247273496   1.2310032361   0.0356648705
 C  3.7640502564   2.5556703561   0.1357393172
 C  4.3325227005   3.5342985164   0.9558083282
 C  3.7572160158   4.7928658983   1.0624979789
 C  2.6139519088   5.0826601768   0.3254455624
 I  1.7301614034   7.0082599253   0.4733641747
 C  2.0453115331   4.1318464126   -0.5121160235
 C  2.620529527   2.8696355999   -0.6015445974
 N  5.7559044574   1.25252172   -0.0115278837
 C  6.4524083014   0.1235818346   -0.1271373113
 C  7.9269478255   0.2827465272   -0.1910981185
 C  8.5447710217   1.1795058394   0.6843391833
 C  9.9196517965   1.3673717999   0.6535329437
 C  10.6809008673   0.667906108   -0.2765401515
 I  12.786931495   0.9446022268   -0.3268594012
 C  10.0832569173   -0.207998199   -1.1734584049
 C  8.7072124516   -0.4010357381   -1.1252329843
 C  5.8102013255   -1.1295206699   -0.1702847632
 C  6.5702230434   -2.3410651139   -0.2629970374
 N  7.1819652877   -3.3197805221   -0.3351246408
 C  4.411759301   -1.1995798916   -0.0901684167
 C  3.6957589086   -2.4995306803   -0.0898590435
 C  3.9583695981   -3.4440960955   0.9102874695
 C  3.287569344   -4.6607398995   0.9312017473
 C  2.3566764471   -4.9325293051   -0.0658096886
 C  2.092693147   -3.9907603637   -1.0734718324
 C  2.7515601374   -2.7745076075   -1.0874707347
 C  1.0536179374   -4.5254155561   -2.0291066658
 C  0.7446964907   -5.8861944391   -1.4514999072
 C  -0.1440650047   -6.8527418047   -1.8988837327
 C  -0.2553266622   -8.0472796746   -1.1880848599
 C  0.5129997302   -8.2712330398   -0.0442863872
 C  1.4060160378   -7.3050604179   0.4094749435
 C  1.5159912272   -6.1130929777   -0.3005136521
 H  5.2282701533   3.3042026017   1.522050158
 H  4.2014185652   5.5370874064   1.7132518368
 H  1.1650455619   4.3643664153   -1.0998883868
 H  2.1821204156   2.143921826   -1.2772025907
 H  7.9448875335   1.7259054909   1.4040287122
 H  10.3870382835   2.0535552248   1.3501753964
 H  10.6748007307   -0.7375102882   -1.9111429815
 H  8.2475876883   -1.0690093453   -1.845180825
 H  4.6805127396   -3.2159526036   1.6876404035
 H  3.4919034317   -5.3809264329   1.7174197231
 H  2.5542523584   -2.045123332   -1.8675427804
 H  0.1655640144   -3.8832934567   -2.0681469236
 H  1.4368247789   -4.5913238592   -3.0544477161
 H  -0.7453429591   -6.6852090072   -2.7881266818
 H  -0.9474321186   -8.8119925039   -1.5278375467
 H  0.4125171231   -9.2078148292   0.4959163662
 H  2.0035101917   -7.4802717716   1.2994580276
