59

 C  3.1200524088   -1.3047138876   1.040616895
 C  1.9244970808   -1.3547694124   1.9835428386
 N  1.0834073948   -0.1706345099   1.8964713301
 C  0.0407226526   0.0145476088   1.0009113361
 C  -0.4661863433   -0.8650254295   0.0427589389
 C  -1.5361387341   -0.4313026828   -0.7267832466
 C  -2.093330998   0.8455126454   -0.5573036812
 C  -1.5830790688   1.7178406977   0.392416754
 C  -0.5064348139   1.3043410873   1.1788284715
 C  0.2644202428   1.9300318133   2.2313993642
 C  0.2148217752   3.1782336973   2.8427055218
 C  1.1223783389   3.4744673999   3.8586059842
 C  1.0904335546   4.7944229912   4.5317166782
 C  0.9016174725   4.9022547015   5.9184947094
 C  0.6412697549   3.7167166838   6.6806634976
 N  0.4055677033   2.7630278225   7.2910086167
 C  0.8644224412   6.1713167285   6.5280372094
 C  0.6803179868   6.3666766566   7.9873942073
 C  1.3586058095   5.5892683004   8.9281921716
 C  1.1933499096   5.8207114349   10.2888588601
 C  0.3382288077   6.8310503343   10.7096473335
 I  0.0742287354   7.1814750545   12.7880391593
 C  -0.3418510029   7.6209646614   9.788966154
 C  -0.1590391673   7.3916118563   8.4323032295
 N  0.9748749218   7.2859786525   5.8069432868
 C  1.1655630595   7.2282012573   4.4899480677
 C  1.2922449159   8.5393206954   3.8043226872
 C  2.2799510485   8.78652472   2.8490476526
 C  2.3878154814   10.0366029758   2.2501419536
 C  1.4978921999   11.042073741   2.6047703558
 I  1.6484083797   12.9485330569   1.6804023901
 C  0.513310031   10.8193528397   3.5610885346
 C  0.42234684   9.5722782999   4.1636828614
 C  1.2291756826   5.9935230973   3.814869719
 C  1.4118747598   5.9441331859   2.3943025074
 N  1.5566781677   5.9055373422   1.2475397281
 C  2.0793612575   2.5161022093   4.2507505847
 C  2.1542797991   1.2744962751   3.645638801
 C  1.2343299402   0.9818443371   2.6356143655
 H  2.7950467034   -1.2249041536   -0.0012941475
 H  3.7163309461   -2.2168500562   1.1440607875
 H  3.7622567679   -0.4480680248   1.2673934369
 H  1.2984658754   -2.2240671494   1.7674079859
 H  2.2550031096   -1.4528537109   3.0204541226
 H  -0.0406359243   -1.8523172743   -0.1016259503
 H  -1.9490125398   -1.0964747335   -1.4793295453
 H  -2.9297090307   1.1510665484   -1.1780793138
 H  -2.0117590802   2.7072176554   0.5229489726
 H  -0.5339521069   3.9050243742   2.5432248385
 H  2.047388046   4.8142671006   8.611288304
 H  1.7363501393   5.2171412029   11.0066879257
 H  -1.0066873431   8.410655293   10.1190916941
 H  -0.6803351281   8.0089928815   7.7090459752
 H  2.99506007   8.0167942082   2.5816841383
 H  3.1665612527   10.2163493548   1.5182319572
 H  -0.1780351802   11.6059832065   3.8400539842
 H  -0.3394384703   9.3948697853   4.9149777473
 H  2.7904283042   2.7656209849   5.0317821118
 H  2.9105951632   0.5595035682   3.9497291469
