63

 N  1.0747966245   -0.1360935456   -0.653716302
 C  2.2179601192   -0.1118734814   -0.4803670452
 C  3.6342088364   -0.08521551   -0.2624666032
 C  4.3349403111   1.1357371684   -0.2156717019
 C  3.682249442   2.4574764323   -0.392325206
 C  4.0480531217   3.5054494902   0.4567879999
 C  3.4756817773   4.7625413236   0.3206402262
 C  2.544374851   4.9794843968   -0.6891078144
 I  1.6678953889   6.9018698767   -0.9110526482
 C  2.1841076841   3.9581206105   -1.5584857398
 C  2.7518345475   2.6983047434   -1.4047710199
 N  5.6479482613   1.1697605452   0.0059637677
 C  6.3414428613   0.0438577982   0.1658566768
 C  7.8000701151   0.2122092539   0.3770546162
 C  8.2507510482   1.260982236   1.1832525058
 C  9.6080112902   1.4638940321   1.390950595
 C  10.5242341066   0.622031614   0.7698038678
 I  12.6035578779   0.9286186897   1.0747376574
 C  10.0983120906   -0.4126750821   -0.053136231
 C  8.7366874129   -0.6163363461   -0.2440686861
 C  5.7039079223   -1.2122946808   0.1523522649
 C  6.4303946395   -2.4065570693   0.4695786469
 N  7.0098293453   -3.3669676525   0.751407874
 C  4.3205343093   -1.2939602824   -0.0676190398
 C  3.6175345589   -2.5992300532   -0.0749008998
 C  2.5777445878   -2.8464184862   0.8431059122
 C  1.9050941289   -4.0553274391   0.8682519861
 C  2.2795332688   -5.0304943594   -0.0571648226
 C  3.3112259656   -4.796700693   -0.9929354055
 C  3.9869110738   -3.5808136519   -0.9922566115
 C  3.4161573012   -5.9904072636   -1.8044949743
 C  4.2416144189   -6.3619012558   -2.8671968852
 C  4.0864119644   -7.6206679961   -3.4271225139
 C  3.1192497921   -8.5080159412   -2.9314939151
 C  2.2872541759   -8.1605015237   -1.8769893744
 C  2.44291668   -6.8898013638   -1.3235428029
 N  1.758756543   -6.2983833095   -0.2616431865
 C  0.7005554097   -6.8935555235   0.4802741003
 C  0.8211348577   -7.0474835211   1.8604329233
 C  -0.2193750569   -7.6213147144   2.5827714311
 C  -1.368552729   -8.0583266667   1.9303919805
 C  -1.480115418   -7.9111236821   0.5507608429
 C  -0.4523456551   -7.3210733707   -0.1765204722
 H  4.7802368716   3.3316906678   1.2377405894
 H  3.7587264361   5.5612918264   0.996332076
 H  1.4720701   4.1331410302   -2.3564673627
 H  2.4792339077   1.9151521973   -2.1031216282
 H  7.5310156777   1.9177192685   1.6592791812
 H  9.9419928633   2.2727558407   2.0303688821
 H  10.8135787269   -1.0567472301   -0.5511424859
 H  8.4159006024   -1.4117586611   -0.9074837221
 H  2.3083221971   -2.0789016232   1.5612240173
 H  1.113605911   -4.2312745106   1.587330949
 H  4.7776334877   -3.3920272106   -1.7118294648
 H  4.9936705743   -5.6754644349   -3.2448277804
 H  4.7189751254   -7.9257514265   -4.2547195308
 H  3.0179749055   -9.4911177431   -3.3812233763
 H  1.5448324848   -8.8540169509   -1.498421539
 H  1.7285385168   -6.724128256   2.3599676634
 H  -0.1247000199   -7.7367785214   3.6579726826
 H  -2.1758486308   -8.5128406947   2.496135118
 H  -2.3755623808   -8.2463153608   0.0367236535
 H  -0.5416172081   -7.1848119527   -1.2492838959
