63

 N  1.4823636841   -0.4156712549   1.4857355036
 C  2.5223926048   -0.2716888072   1.000933368
 C  3.8252253193   -0.1096591378   0.426689469
 C  4.4914356265   1.1312739368   0.4780018258
 C  3.8578919352   2.3752354656   0.9762987427
 C  4.6160323363   3.2516578538   1.7578548809
 C  4.0662917215   4.4331785202   2.2349689586
 C  2.7518410261   4.7512147784   1.9103375987
 I  1.9020227595   6.557669598   2.6346000319
 C  1.988407949   3.9057338682   1.1152423988
 C  2.543132621   2.7178635122   0.6535351477
 N  5.7640035395   1.241698612   0.1026945144
 C  6.4298745759   0.1953276284   -0.3812487305
 C  7.8465019003   0.4444702479   -0.7393157783
 C  8.8530653496   -0.4857981027   -0.4717449298
 C  10.1760109455   -0.2088985297   -0.7958897733
 C  10.4914625238   1.0027340475   -1.3977879758
 I  12.5085851797   1.4219820682   -1.9130275143
 C  9.5053118002   1.9467412269   -1.6636253918
 C  8.1892198627   1.6670572142   -1.3237385435
 C  5.7928526739   -1.0486401781   -0.5632819243
 C  6.4491204999   -2.1194318014   -1.2532849161
 N  6.9630863663   -2.9784973324   -1.832310935
 C  4.4713285265   -1.2230674347   -0.1287650943
 C  3.7844407676   -2.5327647928   -0.2517482989
 C  4.3091215566   -3.666748327   0.3732296097
 C  3.6694150663   -4.8921899529   0.2573675808
 C  2.4921254979   -4.9968487322   -0.4831216435
 N  1.8367754117   -6.2464149246   -0.6004589984
 C  1.4349074589   -7.0599078011   0.4590752375
 C  1.5419030077   -6.843691951   1.8329241344
 C  1.03163616   -7.8175014169   2.6799732445
 C  0.4248102882   -8.9790584266   2.180602099
 C  0.3117297487   -9.1828510573   0.8134914342
 C  0.8167030899   -8.2169089226   -0.058515471
 C  0.8515859597   -8.0997052146   -1.5014661918
 C  0.4179701424   -8.923519001   -2.5415367549
 C  0.6247032939   -8.5174659513   -3.8513811957
 C  1.2651162268   -7.3007091447   -4.1274216305
 C  1.70404631   -6.4645299718   -3.1104092146
 C  1.4831691413   -6.8735279552   -1.7952696909
 C  1.9615960286   -3.8683168338   -1.1078148648
 C  2.606062294   -2.6452011524   -0.9937624266
 H  5.6419130939   2.9986034413   2.0013754562
 H  4.6613469416   5.0956759213   2.8527017376
 H  0.9704762326   4.1638405196   0.8476454366
 H  1.9461007796   2.0775043193   0.0139116865
 H  8.6220282008   -1.4243226011   0.0195985098
 H  10.9481123405   -0.935732136   -0.5723174235
 H  9.7538868774   2.8927976762   -2.1302889956
 H  7.4148563703   2.3996805291   -1.5222170613
 H  5.2213077518   -3.5926034939   0.956273496
 H  4.0885332043   -5.7715981849   0.733608073
 H  2.0026585241   -5.946343777   2.2303235892
 H  1.1038655068   -7.6725533516   3.753680504
 H  0.0376313354   -9.7211126781   2.8717465714
 H  -0.1657309949   -10.0773859745   0.4243305864
 H  -0.0697818556   -9.8695143283   -2.3252072087
 H  0.2927928226   -9.1466122135   -4.6712855907
 H  1.4246170685   -7.0037760273   -5.1596350248
 H  2.2042786715   -5.529408657   -3.3357343426
 H  1.0401228602   -3.9467556826   -1.6739936623
 H  2.1900354914   -1.7733077707   -1.4879742288
