52

 C  1.7206346602   -0.1774582005   -0.01401646
 C  1.2386355995   -1.5162105648   -0.501000337
 C  1.6210709667   -1.9866421106   -1.732100141
 C  1.1839567204   -3.2385336992   -2.213733833
 C  0.3562513121   -4.0296065057   -1.458882006
 C  -0.0813779324   -5.345058746   -2.0065783918
 C  0.6603650495   -6.5086519263   -1.7767796247
 C  1.8190756906   -6.4220525073   -0.9380343809
 N  2.7420259548   -6.337983935   -0.2464782299
 C  0.2191773524   -7.7355151514   -2.3115890488
 C  0.9434723756   -9.0153798509   -2.1179120647
 C  0.206394611   -10.1793450877   -1.8824039237
 C  0.8434941494   -11.4000335032   -1.7080088909
 C  2.230446999   -11.4610525424   -1.7895393118
 I  3.2157174572   -13.3242789437   -1.527993817
 C  2.9805618189   -10.3204608091   -2.0453617568
 C  2.3345824307   -9.1002245591   -2.2054225137
 N  -0.9057043784   -7.8072709157   -3.0218130614
 C  -1.6309369897   -6.7188153535   -3.2751945745
 C  -2.8496992645   -6.9308423302   -4.0936279288
 C  -3.6186389941   -8.0773917534   -3.875165764
 C  -4.7596350632   -8.320922928   -4.6269600494
 C  -5.1246637732   -7.4190202808   -5.6206089795
 I  -6.866634218   -7.7834192933   -6.7797119219
 C  -4.3621565673   -6.2851382853   -5.8695156262
 C  -3.2285409338   -6.0428879614   -5.102617836
 C  -1.2476338215   -5.4601581068   -2.7704777703
 C  -2.0568391077   -4.2921503445   -2.956521567
 N  -2.7063479675   -3.3439691282   -3.0839701848
 C  -0.0731515853   -3.5885337282   -0.1685082737
 C  -0.9290220604   -4.3691226523   0.6517129467
 C  -1.3249928749   -3.9215514704   1.8850179931
 C  -0.8837903554   -2.6685198759   2.3602685964
 C  -0.0566263642   -1.892347656   1.590437365
 C  0.3745463175   -2.322373432   0.3080287344
 H  0.8855056156   0.5030080268   0.1856110289
 H  2.3667142152   0.2916494602   -0.7600087059
 H  2.2906589306   -0.2689559619   0.917121872
 H  2.2759328261   -1.3858004401   -2.3558654411
 H  1.5090660786   -3.5751415725   -3.193401947
 H  -0.875185106   -10.1261294434   -1.8258357854
 H  0.2589389071   -12.2914773739   -1.5122349549
 H  4.059925772   -10.3721872442   -2.1271815895
 H  2.9289501871   -8.2214763437   -2.4289857251
 H  -3.3254006052   -8.7797935159   -3.102839115
 H  -5.3533112844   -9.2074290004   -4.4362796624
 H  -4.6370265772   -5.592545157   -6.6563802165
 H  -2.6280504472   -5.1674210576   -5.3226467246
 H  -1.2734035156   -5.3339609353   0.2946014143
 H  -1.9799873142   -4.5320521587   2.4988341793
 H  -1.2015173991   -2.3204972088   3.3382800812
 H  0.2768725024   -0.9310659351   1.964583925
