54

 N  1.3894818714   -0.985963941   1.5429123177
 C  2.4739537906   -0.8792659138   1.1536097419
 C  3.8173071331   -0.7469487963   0.6715787991
 C  4.0758501149   -0.8197429513   -0.7005135836
 C  5.3762173896   -0.6899874976   -1.1599341499
 C  6.4374795915   -0.4877257006   -0.2693202097
 C  7.8278258826   -0.3488623907   -0.7678213671
 C  8.0949992699   0.3187003788   -1.9675858262
 C  9.3952284387   0.4593619521   -2.4303162327
 C  10.461663707   -0.0791788335   -1.7072991014
 C  11.8560005481   0.0629561566   -2.1971823019
 C  12.4478053982   1.3222803294   -2.3677203567
 C  11.6847920402   2.4982939644   -2.0695947815
 N  11.0602510111   3.4422960609   -1.8329342657
 C  13.7644420517   1.4151115498   -2.861047211
 C  14.4637010896   2.7057902961   -3.0782132327
 C  14.4159769898   3.7416741764   -2.1436273167
 C  15.1086143345   4.926430916   -2.3650207656
 C  15.8470582793   5.077304778   -3.5315231531
 I  16.8939115446   6.8920670113   -3.8799053951
 C  15.9150823929   4.0540036079   -4.4708979698
 C  15.2317947099   2.8692837141   -4.2342902537
 N  14.4608326337   0.3238652296   -3.1739680399
 C  13.942639395   -0.8909071875   -3.0025102509
 C  14.8273877816   -2.0252951409   -3.3629106285
 C  14.9169952518   -3.1718904849   -2.5712802292
 C  15.7790871665   -4.2054996532   -2.9183140454
 C  16.5502433378   -4.0933073475   -4.0680793075
 I  17.8577232181   -5.67676976   -4.6095181206
 C  16.4823382751   -2.9558189825   -4.8654822979
 C  15.6289861267   -1.9229814416   -4.5031096787
 C  12.627775749   -1.0600121882   -2.5252475837
 C  12.0248774924   -2.3592059114   -2.4666925181
 N  11.5232989608   -3.4008024955   -2.4395834204
 C  10.2027262481   -0.7567177052   -0.5137054538
 C  8.9021856947   -0.8819389648   -0.048090094
 C  6.1612630332   -0.4180707175   1.1015973405
 C  4.8654948   -0.5451130203   1.5745723495
 H  3.2616884031   -0.9838455841   -1.3978315827
 H  5.5709720176   -0.7669133562   -2.2242199455
 H  7.2811029368   0.7532333986   -2.5383445293
 H  9.5798095873   0.9837962665   -3.3622901802
 H  13.8625774274   3.6265842089   -1.2185823964
 H  15.0711487711   5.7171697595   -1.6249430849
 H  16.4947338078   4.1713919365   -5.3791357395
 H  15.2868044798   2.0647418364   -4.9593774971
 H  14.338212014   -3.2597013378   -1.6586736966
 H  15.8461872551   -5.0843404192   -2.2878198489
 H  17.087213793   -2.8683408198   -5.7605356367
 H  15.5760535523   -1.0304994485   -5.1167887562
 H  11.0218880468   -1.1810425671   0.0581137884
 H  8.7211726272   -1.4191352159   0.8769549132
 H  6.9665792107   -0.2419960729   1.8065948676
 H  4.661003326   -0.4817156806   2.6376879188
