53

 N  1.2069312434   -0.2573432593   0.5268101816
 C  2.3285399027   -0.1998532027   0.2508645949
 C  3.7266630665   -0.1348607494   -0.0562245231
 C  4.4156897604   1.0938312787   -0.0249236559
 C  3.7381793272   2.4024064768   0.146696928
 C  2.5457829766   2.7100634441   -0.511480662
 C  1.9669957868   3.9626279945   -0.3502607784
 C  2.561127817   4.917413468   0.4680765234
 C  3.7524617785   4.6056156278   1.1142290443
 I  4.6787880067   6.0548995145   2.364108191
 C  4.3504179115   3.3658112609   0.9554319056
 N  5.7422999421   1.139114051   -0.1235226915
 C  6.4525438199   0.0295428907   -0.3130345556
 C  7.9237859941   0.2102297113   -0.370810247
 C  8.4444595191   1.3354506658   -1.0152064426
 C  9.8162150576   1.5346319328   -1.0686661366
 C  10.6860640815   0.6281493693   -0.4683429852
 C  10.1606375922   -0.4778076895   0.1878693047
 I  11.470697011   -1.861660488   1.1310513588
 C  8.7913040734   -0.6977513907   0.2428042829
 C  5.8193710905   -1.2184841642   -0.4774316473
 C  6.565842662   -2.373128376   -0.8813252839
 N  7.1629822006   -3.2983701738   -1.234620439
 C  4.4292617973   -1.3204405775   -0.318346484
 C  3.7326438048   -2.6245722527   -0.4238392809
 C  4.1018297598   -3.6955802264   0.3943526261
 C  3.4431135244   -4.9122239079   0.2966820659
 C  2.4069296972   -5.1003183176   -0.6250138834
 C  1.7072507523   -6.4056140214   -0.7300681094
 C  1.4579603249   -7.1774364512   0.4106262055
 C  0.8026525411   -8.3994995951   0.3132158178
 C  0.3847663926   -8.8737035369   -0.9267425827
 C  0.6272415731   -8.1156431771   -2.068449722
 C  1.2816754119   -6.8930530181   -1.9712195291
 C  2.048161687   -4.0238669426   -1.4440840919
 C  2.6954857808   -2.8014196163   -1.3433627854
 H  2.0807120493   1.9886452456   -1.1737941653
 H  1.0463907622   4.2026155297   -0.872197345
 H  2.1018516349   5.8913336008   0.5928464538
 H  5.2823478784   3.1278381694   1.4531565518
 H  7.7675437391   2.0442011766   -1.4785717643
 H  10.2181761045   2.4024662533   -1.5814692146
 H  11.7571277875   0.7893643517   -0.5111434518
 H  8.401381405   -1.5519098051   0.7824599214
 H  4.9008668307   -3.5752605642   1.1189359847
 H  3.7525681497   -5.7326258286   0.9358250253
 H  1.7613039465   -6.8093755568   1.3858155599
 H  0.6124111862   -8.9796092599   1.2112352705
 H  -0.1268933123   -9.8283482253   -1.0028360895
 H  0.3113843941   -8.4793961427   -3.0416337079
 H  1.4825595383   -6.3212823355   -2.8719213724
 H  1.2389919902   -4.1349029663   -2.1583565176
 H  2.3995422471   -1.9828201947   -1.9916836526
