53

 N  1.3687392104   -0.109074809   1.4624641663
 C  2.4388168123   -0.0964129535   1.0242210537
 C  3.7759960213   -0.0968331845   0.5093998728
 C  4.4860664244   1.1048969833   0.3219258218
 C  3.8675803824   2.4441214588   0.4758392085
 C  2.5918615242   2.7258696822   -0.0165182098
 C  2.0616241331   4.0025502002   0.119304001
 C  2.7882779928   5.0071542493   0.7490180224
 C  4.0616887567   4.7207504859   1.2294319464
 I  5.1841968877   6.2495860887   2.1916955798
 C  4.6119722184   3.4563592506   1.0908793825
 N  5.7809546116   1.0951050451   0.0132625887
 C  6.4305409696   -0.0503982863   -0.1817217336
 C  7.8752831468   0.0773412001   -0.4957829042
 C  8.2971229154   1.1277562751   -1.3153978545
 C  9.6425872364   1.2804408598   -1.6160282514
 C  10.5875685645   0.4021962707   -1.0925513509
 C  10.1638454955   -0.6278398412   -0.262460015
 I  11.5958848762   -1.9612954003   0.5691899465
 C  8.8205424295   -0.8016635799   0.0407212119
 C  5.753862548   -1.2856657155   -0.1238874949
 C  6.401946466   -2.5058621338   -0.5048034594
 N  6.9171948053   -3.4870058723   -0.8354769769
 C  4.4049354437   -1.3239445635   0.2550288594
 C  3.6801090873   -2.6118999138   0.395097283
 C  4.0703512588   -3.4995145714   1.3806409384
 C  3.4194611495   -4.7371865302   1.6013688907
 C  2.3634152829   -5.0773882828   0.7966896304
 C  1.9697969665   -4.1843928784   -0.2209483534
 C  0.8844770543   -4.6820305213   -0.9722831766
 C  0.3983228808   -3.9287177642   -2.0089227653
 C  1.0111415075   -2.6796534479   -2.2872423588
 C  2.069966197   -2.1921348331   -1.5537297758
 C  2.5878236705   -2.9464626782   -0.4676523174
 C  0.4823107249   -6.0328826008   -0.4205360347
 C  1.4695556624   -6.2963542929   0.7561802334
 H  2.0202389161   1.962665842   -0.5324138253
 H  1.0742545271   4.2217038104   -0.2738042511
 H  2.3661907059   5.9996902425   0.8569873194
 H  5.6067966035   3.2365505185   1.4583346566
 H  7.5626370719   1.8151314648   -1.7192741318
 H  9.964756777   2.0894539928   -2.2636312055
 H  11.6382673149   0.5266129407   -1.3281789434
 H  8.5153926489   -1.5956258497   0.7108229124
 H  4.901340508   -3.230819552   2.0262354123
 H  3.7670248068   -5.3865080408   2.3989303362
 H  -0.434708649   -4.2664635994   -2.6185229775
 H  0.6302642935   -2.087194479   -3.1141013497
 H  2.5077387701   -1.2346326715   -1.8166218742
 H  0.5540528326   -6.8110371259   -1.1869510286
 H  -0.5572031024   -6.0250243635   -0.0776229046
 H  2.0552058321   -7.2069811488   0.5951537435
 H  0.9403988286   -6.4276653758   1.705342506
