49

 N  1.3232206198   0.2703062569   1.2175077788
 C  2.4110741853   0.200504769   0.8313295088
 C  3.771679725   0.1194553686   0.3878832403
 C  4.5265593085   1.2881546506   0.1623482827
 C  3.9421523916   2.6515644207   0.1920219869
 C  2.7090271666   2.9390186728   -0.3963822975
 C  2.2166551519   4.237819887   -0.3775673758
 C  2.938941944   5.2599575563   0.2286705407
 C  4.1699555017   4.9669973092   0.8055322851
 I  5.2893440132   6.522436079   1.7270794738
 C  4.6826165152   3.6797558141   0.7852694903
 N  5.8357492911   1.2262474695   -0.0678296829
 C  6.4615604672   0.054028891   -0.1492250645
 C  7.924996651   0.12328799   -0.3840712158
 C  8.4252015943   1.0997278004   -1.2496169805
 C  9.7901670767   1.1964054243   -1.4766001977
 C  10.6760996533   0.3365405106   -0.8330609783
 C  10.1737285875   -0.618565603   0.0418976998
 I  11.5135743746   -1.9210028673   1.0578600729
 C  8.8099865107   -0.7367877142   0.2723594783
 C  5.7486421587   -1.1570622263   -0.0523313962
 C  6.3854996916   -2.409087965   -0.3361866639
 N  6.8883438146   -3.4188380609   -0.5911842644
 C  4.3786506459   -1.1372774847   0.249568779
 C  3.6081832561   -2.3929515264   0.4177688519
 C  4.024344324   -3.3574326667   1.3762189209
 C  3.3194678442   -4.5176832531   1.5383427641
 C  2.1715945511   -4.7918303893   0.7499482108
 C  1.4269080531   -5.9906599505   0.8919180818
 C  0.3245058748   -6.2223333195   0.1115121263
 C  -0.0881481048   -5.2675778138   -0.8486574066
 C  0.6107496823   -4.1003367228   -1.0079522143
 C  1.7558411384   -3.8321259277   -0.2132300434
 C  2.494651563   -2.6317699396   -0.3533219797
 H  2.1437319697   2.1609261884   -0.8965550574
 H  1.2632773788   4.4605025069   -0.8454903795
 H  2.5468865309   6.2703855272   0.2436664291
 H  5.6455126339   3.4547541892   1.2269881693
 H  7.736321623   1.7730698836   -1.7468400514
 H  10.174320271   1.9468818779   -2.1598359699
 H  11.7422481573   0.417774884   -1.0112320255
 H  8.4419658418   -1.4705004144   0.9786569769
 H  4.8948397382   -3.1570524278   1.992293751
 H  3.6321723278   -5.2472814909   2.279558146
 H  1.7474511922   -6.7206198273   1.6297666464
 H  -0.2398377654   -7.1427373777   0.2263039617
 H  -0.9638524233   -5.4660833278   -1.4588084292
 H  0.2997207808   -3.3625751174   -1.7420923215
 H  2.1749965206   -1.9077105134   -1.0969696577
