53

 N  1.1959396706   0.1994852243   1.1440895337
 C  2.284676048   0.1428059687   0.7578178408
 C  3.6413049914   0.0665129498   0.301689153
 C  4.4046380842   1.2363355526   0.1167231107
 C  3.8397620251   2.6038302747   0.2294932262
 C  2.5987877298   2.9405060022   -0.3144055938
 C  2.1257580588   4.2426379176   -0.21180495
 C  2.8751078727   5.2194463994   0.4349657078
 C  4.1142452767   4.878278531   0.9663714182
 I  5.2768157579   6.3606951249   1.9522084057
 C  4.6074381641   3.587500694   0.8623592258
 N  5.7083704725   1.1713940676   -0.1432740564
 C  6.3184848314   -0.0021494286   -0.2913339839
 C  7.7771310843   0.0626824591   -0.5550675223
 C  8.2698142627   1.0685061336   -1.3906837738
 C  9.6311232667   1.1622889966   -1.6400351464
 C  10.5210882994   0.2702436753   -1.0478311421
 C  10.0264447439   -0.7144206832   -0.2018495633
 I  11.3741744495   -2.0647178881   0.7367110462
 C  8.666303325   -0.830323938   0.0494157011
 C  5.5955633364   -1.2101234729   -0.2296585745
 C  6.2178503832   -2.4529362514   -0.5789777553
 N  6.7128428853   -3.451087626   -0.8889990747
 C  4.2329233447   -1.1903346906   0.1031523975
 C  3.4499795523   -2.4425083121   0.2448960474
 C  3.8767313513   -3.4465708011   1.1178743555
 C  3.1267544611   -4.6084680467   1.2461469545
 C  1.9596193319   -4.7771719766   0.5114017628
 C  1.5169087206   -3.7834276363   -0.3678445094
 C  0.2625231762   -3.9491747556   -1.1452570842
 C  -0.5938864963   -2.8618748163   -1.3529345584
 C  -1.7706398433   -3.0133420488   -2.0774537531
 C  -2.1126319697   -4.2544568269   -2.6066093313
 C  -1.2696178797   -5.343326849   -2.4043470567
 C  -0.0926428298   -5.1923756366   -1.6797983685
 C  2.2774036556   -2.6188269687   -0.4912257042
 H  2.010966064   2.1995406271   -0.8441765445
 H  1.1658152574   4.5035634498   -0.6452884185
 H  2.4977062223   6.2323260593   0.5160517435
 H  5.5758822426   3.3255288879   1.2702349061
 H  7.5782332673   1.7673100206   -1.8474175817
 H  10.009123174   1.9360854388   -2.3003824822
 H  11.5844320914   0.3500059142   -1.2425021722
 H  8.3043041223   -1.5887809808   0.732493755
 H  4.777204151   -3.3117026293   1.707925586
 H  3.4485548825   -5.3834754605   1.9343836684
 H  1.3732989794   -5.6817848392   0.6371536651
 H  -0.3474277611   -1.8952241243   -0.9232305072
 H  -2.4262347139   -2.1597893259   -2.2219063298
 H  -3.0317762897   -4.3726230811   -3.172402255
 H  -1.5249715371   -6.3144269229   -2.8178273465
 H  0.5668469714   -6.0441035614   -1.5435349473
 H  1.9672032816   -1.8510807899   -1.1923491239
