53

 C  2.4647537414   0.8751663689   -0.2762764038
 O  1.3654993813   1.5722613286   0.2937037952
 C  1.4298775625   1.9092078049   1.5972335195
 C  2.4920784271   1.6269794202   2.422404684
 C  2.4551045853   2.0324412278   3.7718726596
 C  1.3852104548   2.7134554208   4.2967788624
 C  1.4279659087   3.1407579093   5.7203050348
 C  1.6279617458   4.4824049076   6.0730923895
 C  1.8320969649   5.4412089722   5.0276615596
 N  2.0131933912   6.2016465128   4.1755550283
 C  1.7134617198   4.8461353483   7.4304144949
 C  1.9242513452   6.2427979776   7.8868733557
 C  2.8037994105   6.4840755217   8.9453243391
 C  3.0093466394   7.7787330835   9.3989528315
 C  2.3302476388   8.8471029935   8.8191959264
 C  1.4416859339   8.5975700181   7.7811779513
 I  0.3728423738   10.2110334431   6.9004904266
 C  1.2321915808   7.3096983213   7.3073035727
 N  1.6297803944   3.9291595081   8.3933704842
 C  1.4292101951   2.6460360493   8.100369192
 C  1.3396788637   1.7255716012   9.2620099627
 C  0.371005678   0.7236116466   9.3399504318
 C  0.3060652267   -0.094040238   10.4613756625
 C  1.2035230578   0.0704720468   11.5106355192
 C  2.1605465061   1.0761256104   11.4287943051
 I  3.5359366871   1.3450562862   13.0283694024
 C  2.2315237116   1.9094957378   10.3238814347
 C  1.3244014366   2.2123878497   6.7635061344
 C  1.1655110674   0.8252924295   6.438348832
 N  1.0457346678   -0.292858516   6.1689830504
 C  0.2564562853   3.0081723919   3.4647634139
 C  -0.9015627385   3.6725899967   3.9447600232
 C  -1.9627876975   3.9325364093   3.1156385759
 C  -1.9257843896   3.5382528857   1.7621489693
 C  -0.8259483043   2.8846806599   1.2686551138
 C  0.2827299944   2.6032755631   2.1029411377
 H  2.2029712062   0.7060763129   -1.3210916285
 H  2.6232224425   -0.0878112321   0.2205321986
 H  3.3822077945   1.4706630967   -0.2223456818
 H  3.3647202766   1.101943505   2.0561325656
 H  3.3096228467   1.8071429009   4.4026130152
 H  3.3302369025   5.6534992142   9.4017881084
 H  3.7033250837   7.9641098653   10.2123809112
 H  2.4920624567   9.8566857415   9.1790766991
 H  0.5154347496   7.1344777543   6.5147085405
 H  -0.3523749748   0.5950873861   8.5431246425
 H  -0.4551496504   -0.864866654   10.5235683716
 H  1.1509172852   -0.5741871098   12.3804461163
 H  2.9736296554   2.6962772047   10.2669745966
 H  -0.9507324968   3.9724179979   4.9860424567
 H  -2.8388589297   4.4417541862   3.5052311
 H  -2.7709662637   3.7491293966   1.1145416805
 H  -0.7903278313   2.5709259354   0.2323106346
