65

 N  1.4246773227   -0.3432011246   0.797230528
 C  2.5364944925   -0.258162922   0.4900645186
 C  3.9242929404   -0.1569871087   0.1476837592
 C  4.5914315026   1.0817173396   0.2163170603
 C  3.8925911168   2.3680614026   0.4579917918
 C  2.6782562369   2.676362894   -0.1582948537
 C  2.074648636   3.906032339   0.0723088644
 C  2.6661607522   4.8373963042   0.9189194789
 C  3.8802475436   4.5266302263   1.5218527306
 I  4.8013814084   5.943342121   2.8140337201
 C  4.5027539733   3.3096623659   1.2936582763
 N  5.9149314868   1.1576942487   0.0949978138
 C  6.640089415   0.0693189728   -0.1533981372
 C  8.1063086894   0.2829372675   -0.2374119258
 C  8.5873634918   1.4398333523   -0.8560259027
 C  9.952738613   1.6720650109   -0.9337093899
 C  10.8559174748   0.7671493672   -0.382423314
 C  10.3700967297   -0.3710937909   0.2486257507
 I  11.7333416934   -1.7507715564   1.119325155
 C  9.0075440622   -0.6244818542   0.3265800347
 C  6.0271510391   -1.1829862472   -0.3553473004
 C  6.7910560686   -2.3005599182   -0.8254557643
 N  7.4049631347   -3.192159978   -1.2328340331
 C  4.6410773373   -1.3209975342   -0.1752775969
 C  3.9671266162   -2.6283412454   -0.3213596357
 C  4.403715848   -3.7467626198   0.3962344371
 C  3.7732720422   -4.9716870497   0.261088417
 C  2.680504988   -5.1231197343   -0.6058549908
 N  2.0413159792   -6.3623857102   -0.7482196221
 C  2.0050852338   -7.2933965446   0.328393838
 C  1.634116232   -6.8826113941   1.6112644669
 C  1.5938393111   -7.8015359353   2.6532334642
 C  1.9024440941   -9.1400107678   2.4261295527
 C  2.2606260169   -9.5516815449   1.1456785841
 C  2.3209045185   -8.6349217668   0.1024418614
 C  1.4086356419   -6.7186287569   -1.9733044471
 C  2.0781785516   -6.5613598179   -3.1894128839
 C  1.4542869189   -6.915822574   -4.3796956037
 C  0.1680070266   -7.4485703435   -4.3705143653
 C  -0.4943107736   -7.6170838123   -3.1579455984
 C  0.1164888345   -7.2482246167   -1.9648515396
 C  2.2440106894   -4.0018213207   -1.3274591968
 C  2.8756861266   -2.7788485016   -1.1832285512
 H  2.2138348377   1.9732433356   -0.8401834063
 H  1.1363429509   4.1469155513   -0.4166560467
 H  2.1871340877   5.7930778441   1.0985710356
 H  5.4517715846   3.0721079169   1.7581983273
 H  7.8845221368   2.1474823205   -1.2808613571
 H  10.3235998336   2.5650327441   -1.4264968343
 H  11.9218520565   0.9541760218   -0.4436616214
 H  8.648561249   -1.5044086913   0.8461084097
 H  5.2430330857   -3.6602221442   1.0789186948
 H  4.1354760878   -5.8208035819   0.8283556961
 H  1.3763244522   -5.8435660052   1.7888140817
 H  1.3049222171   -7.469248656   3.6458110457
 H  1.8620459285   -9.8567895764   3.2403425128
 H  2.5072040942   -10.5920835564   0.9561176959
 H  2.6128944874   -8.9562963983   -0.8919753814
 H  3.0870127294   -6.1617996206   -3.1984044665
 H  1.9847414759   -6.7873684249   -5.3184506639
 H  -0.3136044039   -7.7315067628   -5.301277608
 H  -1.499117703   -8.0282667964   -3.1379491656
 H  -0.4066952319   -7.3688684212   -1.0218868797
 H  1.3999837788   -4.0871130151   -2.0014072801
 H  2.5181412078   -1.9314012047   -1.7594262394
