54

 N  1.1380629306   -0.0256046813   0.8545374784
 C  2.2471709359   -0.0489478259   0.527665644
 C  3.631028738   -0.0801169105   0.1569129796
 C  4.3734858817   1.1118624768   0.0414288564
 C  3.7639276849   2.4619172085   0.1266564478
 C  2.5479134392   2.7659466533   -0.4883171109
 C  2.0305384809   4.0525119255   -0.4065022357
 C  2.7104965237   5.0462039257   0.2892617178
 C  3.9258755952   4.7381575159   0.8910731398
 I  4.9809229328   6.2494827981   1.9532229565
 C  4.4631237545   3.4634127507   0.8091637897
 N  5.6942026723   1.0848056228   -0.1225848078
 C  6.3454643723   -0.0704493453   -0.2359348813
 C  7.817277274   0.0357318198   -0.3905988478
 C  8.3420155515   1.0593344061   -1.1839459141
 C  9.7147341771   1.1893701075   -1.3350276803
 C  10.5828697743   0.3156415862   -0.6858882853
 C  10.0548872112   -0.6868605653   0.1179652309
 I  11.3662461692   -2.0131265212   1.1382407136
 C  8.6836572645   -0.8381016364   0.2721831652
 C  5.6532612939   -1.2974859166   -0.241306486
 C  6.3331104415   -2.5201618858   -0.5530342115
 N  6.8773583199   -3.5016679557   -0.832326265
 C  4.268959206   -1.318394797   -0.0128303187
 C  3.5127883286   -2.5919279054   0.0470232111
 C  3.8848889039   -3.5829224673   0.9647853577
 C  3.1811534646   -4.7779604138   1.0442193365
 C  2.1048226984   -4.982626267   0.1870650816
 C  1.7312626419   -3.9956697794   -0.739631603
 C  2.4241178425   -2.8007183163   -0.8101733998
 C  0.5455530504   -4.4612851206   -1.5494408249
 C  0.2741512539   -5.832026453   -0.9768939847
 C  -0.7060618414   -6.7519104598   -1.3194311249
 C  -0.7581677096   -7.9671432374   -0.6376113951
 C  0.1592766519   -8.2580057366   0.3736267064
 C  1.1447546811   -7.3391075159   0.7216156775
 C  1.1957207848   -6.1261984434   0.0406608896
 H  2.0144070738   2.0118984072   -1.0554126413
 H  1.0904066606   4.2881193563   -0.8945101024
 H  2.298272436   6.0466789166   0.3539945143
 H  5.4131118188   3.226725788   1.2721527488
 H  7.666860334   1.7430519793   -1.6858969231
 H  10.1188279939   1.9771244457   -1.9626937326
 H  11.6548702595   0.422486541   -0.8058005011
 H  8.2931080472   -1.6095395214   0.9243208601
 H  4.7198587731   -3.4062056238   1.6351936155
 H  3.4718675413   -5.533573222   1.7674311017
 H  2.1427261536   -2.0386864546   -1.5308033087
 H  -0.3145293579   -3.7903712982   -1.4371461763
 H  0.7731810598   -4.5010297713   -2.6214140263
 H  -1.4232731138   -6.5322724575   -2.1053290966
 H  -1.5208250546   -8.6957450822   -0.8959663519
 H  0.1027500896   -9.2097520666   0.8932903611
 H  1.8578179091   -7.5660785763   1.5088406556
