59

 C  2.8775886728   0.2310761663   -0.1286378715
 C  1.5563301244   0.844804222   -0.5743622496
 N  1.3139841509   0.6943182135   -2.0010751333
 C  0.7003339651   -0.3937076054   -2.6036066193
 C  0.1453699511   -1.5308099317   -2.0142082408
 C  -0.4255050974   -2.4768697414   -2.8533135756
 C  -0.4452856355   -2.3067544571   -4.2462235262
 C  0.1120971057   -1.1777351789   -4.8275952229
 C  0.6924379317   -0.2115529125   -4.0039653456
 C  1.3531305993   1.0516782494   -4.251731891
 C  1.6546523845   1.7651228943   -5.406515674
 C  2.3097086791   2.9909742956   -5.2977139469
 C  2.6329643137   3.7670060997   -6.5175286405
 C  2.179476371   5.083626255   -6.6970124737
 C  1.3775436395   5.6938542485   -5.6776272672
 N  0.7327196887   6.1871683786   -4.8540277763
 C  2.5353478715   5.7980344676   -7.8572927411
 C  2.1069865849   7.1967327674   -8.117344474
 C  3.0401049312   8.1046352288   -8.624350627
 C  2.6661037966   9.4142057535   -8.8880624161
 C  1.3567715269   9.8335204242   -8.6677101943
 C  0.4295659152   8.920073517   -8.1828951926
 I  -1.5796468943   9.5353296388   -7.8559628635
 C  0.7886974189   7.6079901566   -7.9052939331
 N  3.3024186145   5.2500360227   -8.7980598426
 C  3.7325582324   3.9953978846   -8.6784280737
 C  4.5667615843   3.493816257   -9.7998252818
 C  5.5246461763   4.340627176   -10.3631245349
 C  6.3077680032   3.9009472808   -11.4203623612
 C  6.1361809773   2.6218647339   -11.9429446726
 C  5.1676925015   1.7927670867   -11.3915162882
 I  4.8719553078   -0.1545051427   -12.1926090963
 C  4.3830762994   2.2123574708   -10.3259116865
 C  3.4264130725   3.2241801472   -7.5405806301
 C  4.0081982169   1.9265622306   -7.3602001537
 N  4.4991670298   0.8907337488   -7.2068158523
 C  2.6697539352   3.4882530664   -4.028735876
 C  2.3924467354   2.7868014048   -2.8691022774
 C  1.7219072604   1.5665662133   -2.9858770916
 H  2.9025860738   -0.8423155952   -0.3403376298
 H  3.0101239256   0.3707180165   0.9489303827
 H  3.7215942741   0.7027356514   -0.6413469988
 H  0.7187787603   0.383202969   -0.0454316885
 H  1.5283585773   1.9119884422   -0.3411040396
 H  0.1605095855   -1.6756395575   -0.9392463058
 H  -0.8645071765   -3.370669817   -2.4201498435
 H  -0.8998060459   -3.0684011533   -4.8719541733
 H  0.0994900411   -1.0462303873   -5.905674576
 H  1.3666773094   1.3797232306   -6.3798578447
 H  4.0595177384   7.7802493147   -8.8008515757
 H  3.3970063588   10.1200249084   -9.2693202424
 H  1.0690018464   10.8574311598   -8.876757256
 H  0.0439260371   6.9056865545   -7.5525177815
 H  5.6567546931   5.339004388   -9.9616217141
 H  7.0604107916   4.556378872   -11.8465851393
 H  6.7482203074   2.2840030628   -12.7712976792
 H  3.6176791533   1.5591678152   -9.9255579671
 H  3.1983663506   4.4332687903   -3.9585504592
 H  2.6948094562   3.1784066039   -1.904245853
