73

 C  8.3290562178   -4.5586162968   5.0170845287
 O  7.2379197015   -4.3087468553   5.8879072148
 C  5.9839233248   -4.5032765923   5.4106454316
 C  4.9394275549   -4.2331054332   6.3009640132
 C  3.6235397245   -4.4106500625   5.9109713992
 C  3.317758835   -4.8457053455   4.6178768603
 N  1.9558478949   -4.9937981311   4.213792864
 C  1.10090992   -3.8594360883   4.3624157433
 C  1.4513973923   -2.6352039452   3.785026772
 C  0.6458802279   -1.5222984143   3.9519365552
 C  -0.5403005757   -1.6113336361   4.6879759154
 O  -1.2660853911   -0.4705484658   4.7878520033
 C  -2.4744274497   -0.5121945359   5.5294444725
 C  -0.9006139333   -2.8304211213   5.2628338434
 C  -0.0732754666   -3.939243743   5.1058641999
 C  1.4803394914   -6.1970854934   3.6993617025
 C  2.154833785   -7.4072097773   3.9422715
 C  1.6765335143   -8.6005085727   3.4326399621
 C  0.5167393562   -8.6436070104   2.6502232335
 C  0.0206910757   -9.9213859901   2.1014304956
 C  -0.188731099   -11.0433394217   2.9220699944
 C  -0.071545064   -10.9079979746   4.3433664752
 N  -0.00948876   -10.7943883583   5.4928381293
 C  -0.5927007771   -12.2660984903   2.3513031153
 C  -0.7364657725   -13.5202884778   3.1323373389
 C  0.197634582   -13.901662163   4.0979322858
 C  0.0422176043   -15.1019847137   4.7796019702
 C  -1.0415483059   -15.9320734297   4.5139251329
 C  -1.9622828159   -15.5500710355   3.5442941985
 I  -3.6186372164   -16.8136777541   3.1159986907
 C  -1.8174235418   -14.3614391018   2.8466445211
 N  -0.9009566319   -12.3540146118   1.0591756623
 C  -0.7773655428   -11.2988892091   0.256766424
 C  -1.181320887   -11.516581913   -1.1545489188
 C  -0.8830466591   -12.7374449451   -1.7654208723
 C  -1.2629188901   -12.9704990447   -3.0791525458
 C  -1.9590829036   -12.0009965314   -3.7962214701
 C  -2.270464768   -10.7974868903   -3.1760309139
 I  -3.3583365043   -9.3150359002   -4.2449570903
 C  -1.8887765425   -10.5433906223   -1.8660472329
 C  -0.25840002   -10.0789079739   0.7326365956
 C  0.0735480194   -9.0242557897   -0.1782984017
 N  0.3685858785   -8.1869103041   -0.9198323626
 C  -0.1526759863   -7.4394527514   2.4037426861
 C  0.3105757499   -6.2425538801   2.9194675651
 C  4.3604066077   -5.0990027553   3.7309398155
 C  5.6882117878   -4.943120083   4.1200381456
 H  9.2302825192   -4.3412490528   5.5920483003
 H  8.2981711493   -3.9070633862   4.1364292788
 H  8.352909036   -5.6051575046   4.6925866019
 H  5.181830325   -3.8926074063   7.3024175599
 H  2.8197390926   -4.2069893041   6.6113578186
 H  2.3658248093   -2.5589295525   3.2052600792
 H  0.9148730188   -0.5690106078   3.5086618032
 H  -3.1894316836   -1.2192149083   5.0933224621
 H  -2.2944026551   -0.7791990455   6.5770710487
 H  -2.8919615468   0.4945589046   5.4829748359
 H  -1.8093444403   -2.9272477308   5.8440984074
 H  -0.351124387   -4.8812825908   5.5680199685
 H  3.0576122066   -7.41248078   4.5403685174
 H  2.2272183343   -9.5136093821   3.6348459144
 H  1.0634275805   -13.2813855951   4.3007475453
 H  0.7756425942   -15.4000044294   5.5218195851
 H  -1.1592848376   -16.8655492293   5.0522734623
 H  -2.5313327704   -14.0698963911   2.0862894512
 H  -0.3457304642   -13.4945726304   -1.2056734438
 H  -1.0176779538   -13.9144362218   -3.5552080965
 H  -2.2560816243   -12.1883245762   -4.8217739291
 H  -2.1636545865   -9.6089843563   -1.3929694234
 H  -1.0618440152   -7.4363186748   1.8108490385
 H  -0.2355257582   -5.3310153569   2.7104162471
 H  4.1363765925   -5.4274816912   2.7208883491
 H  6.4757727238   -5.1535388642   3.4068209691
