63

 N  1.5847398956   -0.5728162848   1.3761323614
 C  2.6177472777   -0.438259649   0.8740242368
 C  3.9124304296   -0.2857068042   0.278884204
 C  4.5905388857   0.9487619333   0.3256060525
 C  3.9741936567   2.1978824637   0.8361951073
 C  2.6575734495   2.5521474929   0.5355717946
 C  2.1342052189   3.7477196547   1.0113784382
 C  2.9084505918   4.5986943967   1.792709839
 C  4.2217859095   4.2431208741   2.0804681857
 I  5.4221393321   5.5371406299   3.267680162
 C  4.7641969322   3.0602707078   1.6041102018
 N  5.8585966112   1.0495046439   -0.0663998908
 C  6.5078872538   -0.0004196499   -0.5638284746
 C  7.924596932   0.2390132211   -0.9346897602
 C  8.2724451946   1.4556695845   -1.5275400957
 C  9.5927106507   1.7129358382   -1.8663969929
 C  10.5857804449   0.7729250112   -1.6040768388
 C  10.2361510678   -0.426309683   -0.9962035282
 I  11.7437454294   -1.8614077343   -0.5609298944
 C  8.9183041549   -0.7049946223   -0.6605496282
 C  5.8574883472   -1.2374842261   -0.7433224904
 C  6.4969555831   -2.3091880634   -1.4478041362
 N  7.0007881119   -3.1661630412   -2.0386799278
 C  4.5409296236   -1.4028486762   -0.2898168705
 C  3.8438271311   -2.707366396   -0.4037728066
 C  4.3871740941   -3.8514708291   0.186023172
 C  3.7383945436   -5.0728886897   0.0799192446
 C  2.5318687376   -5.1640593156   -0.613956075
 N  1.8664044095   -6.4092850072   -0.7196206204
 C  1.5108700418   -7.2381575036   0.3450215149
 C  1.6783341149   -7.0428389472   1.7160567642
 C  1.2070910171   -8.0300944752   2.5701062297
 C  0.578923326   -9.1845460754   2.0808858307
 C  0.4041303129   -9.3669879696   0.7173087559
 C  0.869122441   -8.3871786224   -0.1614554417
 C  0.839029731   -8.2486342262   -1.602505504
 C  0.3573412622   -9.0570150998   -2.6334803462
 C  0.5053403857   -8.6325835419   -3.9454249531
 C  1.1346856817   -7.4126710723   -4.2325748592
 C  1.620330864   -6.5915447501   -3.2245806366
 C  1.4584763224   -7.0188447282   -1.9066096476
 C  1.9828208108   -4.0254846745   -1.2036574008
 C  2.6371716052   -2.8067080213   -1.1009239458
 H  2.0457808261   1.9149624216   -0.0925671568
 H  1.1141238223   4.0253841189   0.7667225974
 H  2.4918530897   5.5275903978   2.1650730292
 H  5.7893110806   2.7880687409   1.8229394306
 H  7.5008315318   2.190789545   -1.72603484
 H  9.857597179   2.6534901908   -2.3385329421
 H  11.6166242885   0.9801966737   -1.8673985611
 H  8.6715132184   -1.6348121159   -0.1628758233
 H  5.3207570314   -3.7896253326   0.7354316578
 H  4.1726567239   -5.9594342548   0.5283716921
 H  2.1562440951   -6.1516784553   2.1069482485
 H  1.3273965432   -7.9013874569   3.6415596397
 H  0.2240497586   -9.9376269315   2.7774293209
 H  -0.0904036274   -10.255538153   0.3358461688
 H  -0.1215495096   -10.0055434424   -2.4086333478
 H  0.1357188324   -9.2494466484   -4.758511179
 H  1.2477763655   -7.1009290044   -5.2665420984
 H  2.1106965312   -5.6536139224   -3.459281935
 H  1.0395045966   -4.0928990572   -1.7341091661
 H  2.2067398059   -1.9283553861   -1.5704760649
