57

 N  1.4876781475   0.0811004364   1.8080536297
 C  2.5161602445   0.0621844977   1.2798212178
 C  3.8025315948   0.0217529179   0.6496282219
 C  4.5315412292   1.2001195916   0.3957234098
 C  3.9781824836   2.5594024474   0.6115480044
 C  2.6729383741   2.8921157527   0.2435043986
 C  2.2061284593   4.1862924238   0.4356255783
 C  3.0258003967   5.1582796555   0.9989912537
 C  4.327100048   4.8209798668   1.3553208061
 I  5.5933127774   6.2971825339   2.2154079623
 C  4.8140996134   3.5385522208   1.1588810471
 N  5.7897703739   1.1470235734   -0.0360300722
 C  6.3792488758   -0.0187209216   -0.2916194398
 C  7.7917930893   0.0601690016   -0.738117083
 C  8.1708027918   1.0904783984   -1.6027396288
 C  9.4877283675   1.1958839575   -2.0253279502
 C  10.4473243315   0.290553399   -1.5801608808
 C  10.0677965945   -0.7187559124   -0.7044725227
 I  11.5255243096   -2.0916628489   0.0094799496
 C  8.752380926   -0.8457354852   -0.2797057247
 C  5.670624651   -1.2308313715   -0.1682940721
 C  6.2387650493   -2.4743986151   -0.5982954436
 N  6.6828601557   -3.4778411255   -0.9632523734
 C  4.3636739073   -1.2231318796   0.3352666817
 C  3.6212447413   -2.4913644256   0.5629803014
 C  4.0619318139   -3.3382453969   1.581598886
 C  3.3947177551   -4.5179023835   1.8670074023
 C  2.2664864103   -4.8920718414   1.132956795
 C  1.5501463801   -6.1081463843   1.4128434282
 C  0.4603753867   -6.460326864   0.6935104294
 C  -0.021521553   -5.6341944359   -0.3812127278
 C  -1.1454679349   -5.9827785517   -1.1360905947
 C  -1.587163316   -5.1663978678   -2.1706309283
 C  -0.9164128214   -3.9877828442   -2.4725806481
 C  0.2108412072   -3.6030480549   -1.7401499811
 C  0.9334558214   -2.3949162772   -2.0275897572
 C  2.0191237685   -2.0311681729   -1.3067397375
 C  2.4979961678   -2.8380993606   -0.2131650426
 C  1.8154557226   -4.0508405677   0.0811240667
 C  0.6677697153   -4.4290493499   -0.6810522394
 H  2.0270525383   2.1549919117   -0.2199078972
 H  1.1950462981   4.4449263554   0.1385002287
 H  2.6534320801   6.1647562163   1.1513796765
 H  5.8302968274   3.2798742115   1.4297433007
 H  7.4252745134   1.7989205709   -1.9453768981
 H  9.7762740294   1.9890358345   -2.7074499743
 H  11.4756461973   0.378598734   -1.9113898251
 H  8.4835143467   -1.6230795952   0.424593661
 H  4.9312285496   -3.0562585289   2.1673213568
 H  3.7448177211   -5.1586075077   2.6705059672
 H  1.9088806426   -6.73806213   2.221497419
 H  -0.0747583196   -7.3796861473   0.9133860217
 H  -1.6725247153   -6.9036809172   -0.9036202379
 H  -2.4616834636   -5.4521933709   -2.7468582627
 H  -1.2622045868   -3.3526173162   -3.2830343165
 H  0.5893391835   -1.7732118333   -2.849062847
 H  2.5483021012   -1.1191962241   -1.5603439951
