52

 C  -0.0748968437   -0.2715959976   -0.7773569985
 C  -0.1264653524   -1.3362570126   0.2835695326
 C  -1.333346856   -1.789689065   0.753656534
 C  -1.4123892772   -2.7865771719   1.7486863878
 C  -0.274548562   -3.3378801258   2.2793727283
 C  -0.3989654498   -4.3885000088   3.3288563167
 C  -0.4594263052   -5.7451479834   2.9924032325
 C  -0.4079307173   -6.107842519   1.6068620125
 N  -0.377248973   -6.3841883216   0.4845055553
 C  -0.6381228749   -6.7081557317   4.004834991
 C  -0.727132754   -8.1652007688   3.734943423
 C  0.1319549308   -8.8093508885   2.8428094026
 C  0.0283018776   -10.1810204891   2.646766845
 C  -0.9304837196   -10.9237799406   3.3270889345
 C  -1.777799498   -10.275542853   4.2193795546
 I  -3.2472657271   -11.3938874268   5.2739069477
 C  -1.6798659898   -8.9106824077   4.4372814002
 N  -0.7592022023   -6.3463784424   5.2808643606
 C  -0.6853229093   -5.0667315178   5.6425727042
 C  -0.8198427363   -4.7995959426   7.0964492374
 C  -1.7655815838   -5.5194380878   7.8311470263
 C  -1.9049609593   -5.2983930596   9.1933174939
 C  -1.0943949795   -4.373093817   9.8455004173
 C  -0.1422278758   -3.6761730495   9.1129171429
 I  1.1211140048   -2.2789183713   10.0980856807
 C  0.0037022468   -3.8767101406   7.746939766
 C  -0.51106276   -4.0509785035   4.6819214993
 C  -0.5125531085   -2.6636622359   5.0418744221
 N  -0.5234813265   -1.5409134119   5.3182119716
 C  1.009645049   -2.903032358   1.8261725068
 C  2.216144912   -3.4407728276   2.3453855015
 C  3.4342606759   -3.0042417431   1.8939303081
 C  3.5061317064   -2.0065055724   0.8989589864
 C  2.357606349   -1.4682653778   0.3787550981
 C  1.077840037   -1.8947388718   0.8214110251
 H  -1.0843886768   0.0340315977   -1.0629374183
 H  0.4386444023   -0.6254400076   -1.6781629109
 H  0.461871484   0.6179055393   -0.4295583494
 H  -2.2539443796   -1.374969739   0.3543855371
 H  -2.3868020591   -3.1179019183   2.0943095035
 H  0.9018697477   -8.252505105   2.3210717905
 H  0.7054483214   -10.6802757083   1.9614495057
 H  -1.0089912777   -11.9927507472   3.1656120313
 H  -2.3370205758   -8.4107749307   5.138097354
 H  -2.3949468924   -6.2436419746   7.3264880782
 H  -2.649773773   -5.8494380811   9.7583887514
 H  -1.2049686296   -4.2057849305   10.9107427488
 H  0.7695818383   -3.3413574466   7.1997104913
 H  2.1709644131   -4.2078067118   3.1114069601
 H  4.3470701821   -3.4265634221   2.3024523704
 H  4.4745956139   -1.6655748027   0.5462498923
 H  2.4246578133   -0.7022295689   -0.3854482841
