58

 C  0.0737811727   -0.2973247175   3.2498299579
 N  0.6402562472   -0.7147513301   1.9750217002
 C  0.969765335   0.3003201695   1.0318311939
 C  2.291997386   0.5101814186   0.6337235766
 C  2.5976828851   1.5239691682   -0.267338388
 C  1.5933400353   2.3503396615   -0.7641439471
 C  0.2767204792   2.1501978094   -0.359991112
 C  -0.0364569675   1.1256060669   0.5267066407
 C  1.0093981729   -2.0334733018   1.791137231
 C  1.4048103357   -2.5212364422   0.5280766842
 C  1.74622962   -3.8479980545   0.3523465371
 C  1.6913131333   -4.7604402986   1.4141687479
 C  2.0458522301   -6.1821416783   1.2145515231
 C  3.3040087679   -6.5666055282   0.7201802688
 C  4.259675419   -5.5577589119   0.3702975016
 N  5.028053701   -4.7429012782   0.0818229419
 C  3.6182816434   -7.9317619667   0.5791516016
 C  4.9490419211   -8.421791624   0.1386408358
 C  6.1399531752   -7.8894101344   0.6354700959
 C  7.3598450238   -8.405757571   0.2161560262
 C  7.4099721465   -9.448553754   -0.7025344458
 C  6.2188616414   -9.979388566   -1.1856478241
 I  6.2758902116   -11.5790568281   -2.5860658134
 C  4.9929724597   -9.4860865711   -0.7681902735
 N  2.7115773116   -8.8764352797   0.8200577084
 C  1.4927881521   -8.5543800218   1.2473402412
 C  0.5632396953   -9.696174337   1.4410320817
 C  1.0436914619   -10.8670879543   2.0326616447
 C  0.2014966405   -11.9558869869   2.2060137957
 C  -1.1215694726   -11.9019522208   1.7753275721
 C  -1.5856934925   -10.742306771   1.1676356096
 I  -3.591613324   -10.6522822307   0.4676302389
 C  -0.760843388   -9.6387100576   0.9984214467
 C  1.1390280349   -7.2159487883   1.5036884768
 C  -0.1465257652   -6.895338722   2.0496990198
 N  -1.1820645075   -6.6405265975   2.497351298
 C  1.2848224175   -4.285742636   2.6630201236
 C  0.958283677   -2.9530738594   2.856273392
 H  -0.2547629979   0.7378836284   3.1677425574
 H  0.809357021   -0.3589543313   4.0625326157
 H  -0.7907643226   -0.9132828124   3.5164920317
 H  3.0781250329   -0.122258573   1.0337866552
 H  3.6290908144   1.6765541076   -0.5707701071
 H  1.8359516083   3.1459134309   -1.4618323487
 H  -0.5146908286   2.7867782026   -0.7440988706
 H  -1.0649976063   0.9579838882   0.83155186
 H  1.4311118922   -1.8549016598   -0.3251325355
 H  2.0317662742   -4.1873356452   -0.6384762475
 H  6.1222587853   -7.092520138   1.3699796862
 H  8.2834896589   -7.9967333105   0.612611398
 H  8.3652151609   -9.8427903121   -1.0297465934
 H  4.0666823005   -9.9073068281   -1.1391049396
 H  2.0762014409   -10.9138026791   2.3602249857
 H  0.5736896395   -12.859188367   2.6785692905
 H  -1.774238188   -12.7571038917   1.9085526492
 H  -1.1346815795   -8.753109488   0.4996741112
 H  1.2452121617   -4.9603462492   3.5126036895
 H  0.6704401158   -2.6293682468   3.8479962023
