56

 C  1.3594947208   0.4534467917   2.28317686
 C  0.882673359   1.8086901939   1.8341113812
 C  1.6754212826   2.6079718361   1.0056998967
 C  1.2373419751   3.8517183781   0.5732831796
 C  -0.0148555499   4.3472077256   0.9570442161
 C  -0.484418926   5.6771080394   0.4955321537
 C  -0.1722243557   6.1447162957   -0.7860668255
 C  -0.6143977223   7.3847090665   -1.2238326084
 C  -1.3773037973   8.1981938542   -0.3833775025
 C  -1.8481709481   9.5278529083   -0.8477973655
 C  -2.7325255669   9.6528450406   -1.9285127801
 C  -3.1514408608   8.4743086827   -2.6280200395
 N  -3.4777471007   7.5208837081   -3.1951795725
 C  -3.1920135752   10.9281462082   -2.3123750697
 C  -4.1854425504   11.1482670144   -3.393466629
 C  -5.3249162368   10.353266865   -3.5306762424
 C  -6.2422529627   10.622473162   -4.5388109753
 C  -6.0355906967   11.6764392808   -5.4220904873
 C  -4.9021568944   12.4685600321   -5.2736576564
 I  -4.5725716522   14.089120204   -6.6099588707
 C  -3.9832951984   12.2232409579   -4.2659347665
 N  -2.7319127032   12.0293089597   -1.7224995215
 C  -1.8577462367   11.9553406759   -0.7215294275
 C  -1.4063288348   13.2573648636   -0.1692646679
 C  -2.3454107528   14.2777349007   0.002193022
 C  -1.9516063699   15.5098623634   0.5031990909
 C  -0.6175741207   15.7493863491   0.8217724856
 C  0.3142390321   14.7375137437   0.6284974741
 I  2.3606212138   15.0952129693   1.0822619439
 C  -0.0640066764   13.4946105636   0.1389112254
 C  -1.4264080314   10.7101600491   -0.2236786053
 C  -0.5632436349   10.6313691222   0.9176176847
 N  0.125726316   10.5636417459   1.8438699093
 C  -1.6903641941   7.7440798883   0.8996377492
 C  -1.2523302356   6.4992414746   1.3280153362
 C  -0.8070902113   3.5501613309   1.7881957117
 C  -0.3638195851   2.304060077   2.2170989737
 H  2.3818384762   0.5002168942   2.6728322989
 H  1.366016176   -0.2588941483   1.449652817
 H  0.7148193415   0.0434718992   3.0655625505
 H  2.6562883229   2.2524214323   0.7004358708
 H  1.8865839048   4.4559153952   -0.0530290994
 H  0.409496765   5.5242756685   -1.4598278616
 H  -0.3595447334   7.7237833639   -2.22296127
 H  -5.5177776043   9.5424485875   -2.8377532955
 H  -7.1324150708   10.0094021175   -4.6354166286
 H  -6.752845138   11.8775342137   -6.2096091466
 H  -3.1061205943   12.847199556   -4.1468593015
 H  -3.3834650137   14.0942038554   -0.2511842549
 H  -2.6857887018   16.2958189363   0.6481968841
 H  -0.3142298605   16.7146506857   1.210623888
 H  0.6826467957   12.7282620008   -0.0290257529
 H  -2.2838472437   8.3630604924   1.5649839002
 H  -1.4972994617   6.1713166309   2.3328671903
 H  -1.7910676301   3.8962266718   2.0897511183
 H  -1.0030504477   1.7027504247   2.8579914124
