55

 N  1.3662134817   0.1327257197   1.7243332986
 C  2.4101635126   0.0914624091   1.228642723
 C  3.7132183674   0.0213278918   0.6365735396
 C  4.444692166   1.1814243413   0.3162552577
 C  3.8938188561   2.5532104676   0.4368690568
 C  2.5882964779   2.8653626894   0.0506447836
 C  2.1197497841   4.1699219316   0.1505753552
 C  2.9436370769   5.1738743374   0.6395586561
 C  4.2487915252   4.8653086389   1.0151272976
 C  5.1292538352   5.9351328305   1.5849174467
 F  4.8606018247   7.1425285994   1.0569680142
 F  4.9755886136   6.0568158556   2.9189405997
 F  6.4329067191   5.6865842497   1.3697668696
 C  4.7286980314   3.5682012122   0.9078295424
 N  5.7088149587   1.1011197414   -0.0941980093
 C  6.3045928547   -0.0773616239   -0.2587069046
 C  7.7238172394   -0.026955981   -0.6870513766
 C  8.1172463435   0.9465924863   -1.6103640175
 C  9.4399433776   1.03534427   -2.0190539716
 C  10.3915121801   0.1665121876   -1.4983731893
 C  10.005629185   -0.7883123506   -0.5638380388
 C  11.016476624   -1.7493305821   -0.017198784
 F  12.2541768535   -1.2249490498   0.0020794465
 F  10.7241855535   -2.1293266249   1.2395444249
 F  11.087750227   -2.8773531434   -0.7521878016
 C  8.6806103101   -0.8918877178   -0.1571412205
 C  5.5978939259   -1.2795897156   -0.0578129518
 C  6.1742416453   -2.5522364875   -0.3768017845
 N  6.6251792301   -3.5812189963   -0.6508982
 C  4.2849312328   -1.2381465201   0.4227115601
 C  3.5368999028   -2.4910764608   0.723440358
 C  3.805096644   -3.1537442134   1.8969285882
 C  3.1103352978   -4.3353150324   2.234486442
 C  2.1616818093   -4.8383989603   1.3872579013
 C  1.8649187593   -4.1892346856   0.1615533916
 C  0.8907960083   -4.7089040561   -0.7293571976
 C  0.6172596097   -4.0810290658   -1.9147359056
 C  1.3105936615   -2.9007505906   -2.2658918757
 C  2.2560668411   -2.371777908   -1.4269631411
 C  2.5577174202   -2.9959754281   -0.1879307237
 H  1.93972376   2.0997464659   -0.359919032
 H  1.1085075871   4.4043619735   -0.1640265145
 H  2.5794187647   6.1923330646   0.7190071439
 H  5.7484106518   3.3344956048   1.189971451
 H  7.3746898407   1.6288290718   -2.0089527799
 H  9.7331891349   1.7875089215   -2.7436099281
 H  11.4279760574   0.2377322297   -1.809371205
 H  8.4099881327   -1.6246712776   0.5937951316
 H  4.5535181763   -2.7601327404   2.5777163709
 H  3.336037509   -4.8358761453   3.1704236708
 H  1.6209034467   -5.746565707   1.6380386991
 H  0.3675891516   -5.619025218   -0.4500460113
 H  -0.1292928831   -4.4873909296   -2.5900286657
 H  1.0926504065   -2.411397714   -3.2101745601
 H  2.7838722963   -1.4682822649   -1.7137932302
