59

 N  1.2669172238   -0.307703171   0.3181224906
 C  2.3929887291   -0.2760960296   0.0565155762
 C  3.7952330904   -0.2393492158   -0.2367477613
 C  4.4999872264   0.9800298253   -0.2363727851
 C  3.8407259325   2.3012606724   -0.0914869208
 C  2.6533503534   2.6148226619   -0.7570072978
 C  2.0845816362   3.8752688407   -0.6207584504
 C  2.687245018   4.8317342554   0.184458933
 C  3.875111885   4.5225624315   0.8420190712
 C  4.5031346825   5.5313341946   1.7545595696
 F  4.2597060958   6.7922933125   1.3558916951
 F  4.0347115259   5.4300155331   3.0149552601
 F  5.8378786156   5.3871550476   1.829294665
 C  4.4578507272   3.2712869594   0.6999142853
 N  5.8268861346   1.007022791   -0.3350894409
 C  6.523214325   -0.1168314867   -0.4891241124
 C  7.9959460407   0.0489144149   -0.5646701452
 C  8.5162823557   1.1493902185   -1.252870108
 C  9.8869294779   1.3495702433   -1.3273798962
 C  10.7567894999   0.4643203354   -0.7021108689
 C  10.2404585629   -0.6196456334   -0.0005038157
 C  11.1693470926   -1.599527338   0.6486555554
 F  12.3340526725   -1.031749223   1.0066793504
 F  10.6349670203   -2.1463434413   1.7554104383
 F  11.4767342879   -2.6225828264   -0.173981888
 C  8.8688081606   -0.8331482289   0.0713213402
 C  5.8761792455   -1.3626831341   -0.6039779253
 C  6.6112203962   -2.5425275531   -0.9524737134
 N  7.2011138507   -3.4890038148   -1.2585898629
 C  4.4846675444   -1.4419865846   -0.4485003201
 C  3.7737740145   -2.7420019394   -0.5016768877
 C  4.1178662093   -3.7730585436   0.3758616201
 C  3.4455668786   -4.9849670438   0.3314126352
 C  2.4217807657   -5.2087309492   -0.5954685167
 C  1.7075570901   -6.5092354396   -0.6426452309
 C  1.4285305283   -7.2148467308   0.5330600391
 C  0.7591857013   -8.4320478578   0.4897254524
 C  0.3576025848   -8.9677755088   -0.730030598
 C  0.6298628741   -8.2758651747   -1.9061369833
 C  1.2978074378   -7.057852625   -1.8629216231
 C  2.0896234033   -4.1731361405   -1.4755799202
 C  2.7495725674   -2.954532275   -1.4275682437
 H  2.1821870015   1.8876555322   -1.4087338832
 H  1.1699169754   4.113768388   -1.1528262025
 H  2.2427045433   5.8148878552   0.2939086401
 H  5.3887020003   3.0378896369   1.2032277159
 H  7.8356285489   1.8430460747   -1.7336189776
 H  10.2806304277   2.2014138726   -1.8715426007
 H  11.8285968752   0.6211974919   -0.752205491
 H  8.4896648578   -1.6680691038   0.6487674692
 H  4.907558243   -3.6246713108   1.1054767637
 H  3.7348967292   -5.7746402003   1.0170326778
 H  1.7190672436   -6.7976468611   1.492297872
 H  0.5454445226   -8.9602448015   1.4141329745
 H  -0.1648444879   -9.9190236269   -0.7637506386
 H  0.3272758512   -8.6884757385   -2.8639390338
 H  1.5216727787   -6.5372727389   -2.7888735754
 H  1.2910864622   -4.3127501158   -2.1968484248
 H  2.4739319631   -2.1677281822   -2.1225099461
