59

 N  1.0674898045   0.0997981444   1.1843423542
 C  2.1779045683   0.1163544226   0.8617443972
 C  3.5613568952   0.1230253447   0.4889742192
 C  4.2740210065   1.3285724736   0.3438280787
 C  3.6367514073   2.6664968777   0.4081303468
 C  2.4059279363   2.9312692656   -0.1965067394
 C  1.8578819569   4.2073546623   -0.1435459403
 C  2.5269430693   5.2296408087   0.5145503407
 C  3.7591813715   4.9688039927   1.1090009553
 C  4.4659088528   6.0574257677   1.8570026632
 F  4.2434806254   7.2671350106   1.3129291422
 F  4.0593253245   6.1340443984   3.1403572542
 F  5.796998011   5.8715375373   1.886375744
 C  4.3187487514   3.7008447747   1.0515511301
 N  5.5933679777   1.3272477095   0.1654890102
 C  6.2707811389   0.1859180151   0.0683993902
 C  7.7384979779   0.3250378716   -0.0992247464
 C  8.6443697435   -0.5155534084   0.5512788126
 C  10.0127458941   -0.3287114913   0.3948040367
 C  10.491682888   0.6914363931   -0.4145380663
 C  9.5890534544   1.5355424245   -1.0570857143
 C  10.102709731   2.6071563051   -1.9691111714
 F  11.2645081816   3.1247120662   -1.5310968409
 F  10.3368930253   2.1403014117   -3.2123746673
 F  9.2352718784   3.6256413869   -2.0977178991
 C  8.222084386   1.3645728916   -0.8962844861
 C  5.6056879424   -1.0559007318   0.0932656492
 C  6.3023990227   -2.2773621998   -0.1837583351
 N  6.8609379645   -3.25944843   -0.4308153996
 C  4.226332692   -1.1014053954   0.3344114007
 C  3.5065114427   -2.3961182422   0.4377522498
 C  3.7922561069   -3.2419560148   1.492854373
 C  3.1399618125   -4.4843668415   1.6789356973
 C  2.1926549323   -4.8726574173   0.7681896394
 C  1.9069898743   -4.0218800398   -0.3188903479
 C  0.9283596759   -4.5666395494   -1.1760043731
 C  0.5558004694   -3.8573035374   -2.2876363125
 C  1.1743715967   -2.6046058421   -2.5336443821
 C  2.1296028673   -2.0714801484   -1.6974479945
 C  2.5284211891   -2.7800594121   -0.5337091791
 C  0.4902625218   -5.9090392776   -0.6316555208
 C  1.3297196846   -6.1099414397   0.6656578724
 H  1.8829750438   2.1525164045   -0.7402584459
 H  0.9078298254   4.405680891   -0.6278918468
 H  2.100259418   6.2258957018   0.556574449
 H  5.2829437545   3.5048263977   1.505225344
 H  8.2901190209   -1.3018615616   1.2082029155
 H  10.7077246697   -0.978581886   0.9155777056
 H  11.5592938614   0.8373895914   -0.5387507829
 H  7.5235289315   2.0310625025   -1.3877788451
 H  4.5376744571   -2.9353375761   2.2207944547
 H  3.4015846274   -5.0999293616   2.5340805753
 H  -0.1915981135   -4.232867404   -2.9804303791
 H  0.8839583706   -2.0472154939   -3.4195140493
 H  2.5793734316   -1.1138416808   -1.9387356472
 H  0.6746849204   -6.7082513531   -1.356455825
 H  -0.583685241   -5.91880037   -0.4205686984
 H  1.9438687295   -7.0143988406   0.6134274805
 H  0.6899886398   -6.2161264985   1.5474949539
