61

 N  1.5869960865   -0.2634182205   1.7026351984
 C  2.5957933174   -0.1991365057   1.1410574053
 C  3.8551274425   -0.1386074252   0.4599340921
 C  4.5570352064   1.0728744155   0.303782085
 C  4.0168191823   2.3910525664   0.7173338137
 C  2.6844364011   2.7498440404   0.5005263661
 C  2.2265185684   4.007916566   0.873029857
 C  3.087819187   4.9181837542   1.4690214473
 C  4.4188127542   4.5650288609   1.676725406
 C  5.3425350643   5.5249991439   2.3622055538
 F  5.0236781235   6.8048721175   2.1002281955
 F  5.3073346719   5.3875188637   3.7030331649
 F  6.6230328754   5.3491089544   1.9917896505
 C  4.8875689449   3.315680056   1.2971782149
 N  5.7837362611   1.0892041247   -0.2125260578
 C  6.3658133287   -0.0278217851   -0.6429213267
 C  7.7436893921   0.1285965849   -1.1694855151
 C  8.0604263982   1.2789299382   -1.8986560273
 C  9.3443972196   1.4718779958   -2.3871588547
 C  10.3344430726   0.5289421933   -2.1395347654
 C  10.0262302854   -0.6066675846   -1.3979623198
 C  11.0813088538   -1.6417543227   -1.1531474396
 F  12.3097276249   -1.100798935   -1.0721421606
 F  10.8693472309   -2.3225790182   -0.0130700493
 F  11.1292408589   -2.555297735   -2.1434826089
 C  8.7398426463   -0.8136315646   -0.9144111687
 C  5.6798243335   -1.2578282536   -0.6096580912
 C  6.2303144382   -2.4456373833   -1.1921903317
 N  6.6568779124   -3.4068210308   -1.6731927968
 C  4.4109085721   -1.3275242571   -0.024552236
 C  3.6799371618   -2.6240163803   0.0820432313
 C  3.8793157629   -3.4350809491   1.2137147204
 C  4.7543828334   -3.0725204167   2.2871940408
 C  4.9145143466   -3.8893911761   3.3657672037
 C  4.2160147658   -5.1271361343   3.4558958806
 C  3.3744287097   -5.5085052465   2.4569216455
 C  3.1758963734   -4.6817251802   1.3076974024
 C  2.3147769195   -5.0638943354   0.2816105687
 C  2.1143296238   -4.2632508848   -0.8404954173
 C  1.2287847732   -4.6632359773   -1.8891152961
 C  1.0389009146   -3.8758923568   -2.9825754517
 C  1.7266262578   -2.6338546187   -3.0946387403
 C  2.5791165178   -2.2154226565   -2.1176816986
 C  2.8081736861   -3.0124765213   -0.9507985234
 H  2.0030552569   2.0636295452   0.0107922804
 H  1.1933349217   4.2811411333   0.6877959169
 H  2.7313496715   5.899711322   1.761681783
 H  5.9266308444   3.0492266653   1.4496798059
 H  7.2889427557   2.0179937503   -2.0830060238
 H  9.5773700849   2.3634283558   -2.9594454821
 H  11.3416152515   0.680346223   -2.512196525
 H  8.5318379863   -1.6916662007   -0.3150747879
 H  5.2951749124   -2.1335456641   2.2392430108
 H  5.5823374341   -3.5961038106   4.1699027638
 H  4.360610359   -5.7603290402   4.3255485045
 H  2.8339441814   -6.4492144387   2.5101534072
 H  1.7860349381   -6.0103052486   0.3584451202
 H  0.7124325655   -5.6135782736   -1.7882363188
 H  0.3651184286   -4.1872087529   -3.7745786594
 H  1.5666979701   -2.0151037767   -3.9722351935
 H  3.0931775367   -1.2662651092   -2.2227978687
