59

 C  2.6626217154   0.967314522   -0.2449694462
 O  1.5789727908   1.4934123142   0.5098921075
 C  1.6882833287   1.5158689087   1.853407529
 C  2.7845847247   1.0715705387   2.5525605256
 C  2.7921760735   1.1451841715   3.9598907911
 C  1.7330449228   1.6580923193   4.6654334905
 C  1.8199133007   1.7303032557   6.1483325058
 C  2.0465306928   2.9451328763   6.8084722359
 C  2.2202896944   4.1288952575   6.0196370045
 N  2.3732518743   5.07387029   5.3709292982
 C  2.1877150999   2.9663348339   8.2088335876
 C  2.452094362   4.2038716035   8.9848552417
 C  3.3553665875   4.1519320538   10.0499429114
 C  3.6123659578   5.2829111989   10.8123204311
 C  2.9564449809   6.4750651612   10.5341723232
 C  2.0431036331   6.5239303384   9.4855438843
 C  1.3560133243   7.8183145709   9.1747690897
 F  1.0127774059   8.483366821   10.2930334438
 F  2.1456092376   8.6491296223   8.4650648151
 F  0.2343584073   7.6425035007   8.4556965735
 C  1.78974967   5.4002513381   8.7092958386
 N  2.1129385026   1.8444404347   8.923396631
 C  1.8767369554   0.6737019299   8.3357510994
 C  1.7940831115   -0.496533325   9.2455433759
 C  0.8099742893   -1.4771683295   9.1051200163
 C  0.7449308374   -2.5397673099   9.9989247115
 C  1.6617274144   -2.6393132248   11.0356428531
 C  2.6381476931   -1.6567960136   11.1813233261
 C  3.659349387   -1.7844981649   12.2698408207
 F  3.1517168329   -2.3673965167   13.3703738412
 F  4.710666828   -2.537683784   11.887749999
 F  4.1563126436   -0.5924073346   12.6430499124
 C  2.7022826445   -0.5859592094   10.301770292
 C  1.732538327   0.5775881558   6.9377259341
 C  1.5527079077   -0.6888528395   6.2907469659
 N  1.4158427341   -1.7095499247   5.7647512312
 C  0.5711966874   2.1174336565   3.9652128129
 C  -0.5751358714   2.6264505058   4.6276094244
 C  -1.6701846476   3.0510414588   3.9198683639
 C  -1.6795842015   2.9868935392   2.5114239867
 C  -0.5912300366   2.4921526571   1.8404750846
 C  0.5517632309   2.0460682285   2.5463473738
 H  2.3632064867   1.042859167   -1.2905894741
 H  2.8471602143   -0.0823336144   0.0070098365
 H  3.5762685115   1.5492254385   -0.0843752933
 H  3.6506049487   0.6676758532   2.0444948728
 H  3.6719374642   0.795640493   4.4916794349
 H  3.8608498943   3.2188684255   10.2725065885
 H  4.3229909111   5.2338222729   11.6304969771
 H  3.1467017002   7.3590338713   11.1337588466
 H  1.0551571794   5.4561751295   7.9156647698
 H  0.06996595   -1.4020561891   8.3162444671
 H  -0.0321886514   -3.2885685023   9.8891007659
 H  1.6134918875   -3.4684090105   11.7333537163
 H  3.4571928753   0.1813267858   10.4267171026
 H  -0.5878175493   2.6729837966   5.7114118215
 H  -2.5371573354   3.4360749455   4.4478791245
 H  -2.5515325443   3.3257422755   1.9608251341
 H  -0.5913309968   2.432598776   0.7586990711
