71

 N  1.4240886447   -0.2685369038   0.6500352461
 C  2.5208667797   -0.2018588976   0.2889138199
 C  3.8902300894   -0.1192875742   -0.1248571912
 C  4.5771834918   1.1088619351   -0.0798125526
 C  3.9127485202   2.3997314791   0.2259153482
 C  2.6781805501   2.745114781   -0.3278024279
 C  2.1020307136   3.977743964   -0.0444784077
 C  2.7453770561   4.8732294729   0.7981929391
 C  3.9799246097   4.5320516193   1.3454252544
 C  4.6520005984   5.4744278736   2.2965014631
 F  4.4164228924   6.7605028209   1.9806719741
 F  4.2184185806   5.3056767321   3.5621936265
 F  5.9855890594   5.3075859998   2.3218579517
 C  4.5692323765   3.3098966941   1.0560328
 N  5.8917177678   1.1713317468   -0.2784337423
 C  6.5856824308   0.076476271   -0.5812255582
 C  8.0466020253   0.2740286071   -0.7516557278
 C  8.5020837252   1.4349751959   -1.3832825517
 C  9.8615579862   1.6658211317   -1.5374029436
 C  10.7846890416   0.7507225948   -1.0467332744
 C  10.3336383328   -0.3954448041   -0.4003125536
 C  11.323570984   -1.4004257756   0.1039899057
 F  12.4724141625   -0.8233195153   0.4981057884
 F  10.849114415   -2.0994695432   1.1503130596
 F  11.6525958263   -2.3017904842   -0.8431114504
 C  8.9737703273   -0.6405377207   -0.2524176053
 C  5.9469492883   -1.1664989243   -0.7540753694
 C  6.6695239184   -2.2892913118   -1.2740169746
 N  7.2500374218   -3.1843016684   -1.721043754
 C  4.5725329228   -1.2902654675   -0.4930736234
 C  3.8781059043   -2.5909324085   -0.5948772275
 C  4.349835657   -3.7108328827   0.097503611
 C  3.6973931405   -4.9282445364   0.0138090882
 C  2.5453898071   -5.0708127309   -0.7739083614
 N  1.88068828   -6.3013582189   -0.8595804056
 C  1.9052550114   -7.2222716767   0.226120948
 C  1.6309445557   -6.7947218365   1.5273505097
 C  1.6490761232   -7.7037726116   2.5781321784
 C  1.9198297658   -9.0486667798   2.3429911784
 C  2.1812413791   -9.4768923901   1.0450486898
 C  2.1834051678   -8.5702700647   -0.0083299663
 C  1.1543936502   -6.6566643318   -2.0319540408
 C  1.7381801527   -6.526719949   -3.294129538
 C  1.023571154   -6.8803223817   -4.4321724415
 C  -0.2690786929   -7.3852542796   -4.3246592974
 C  -0.8461919906   -7.5263630357   -3.0662853766
 C  -0.1441605201   -7.1580114128   -1.9247200936
 C  2.075276456   -3.9490232102   -1.4728441686
 C  2.7296267561   -2.7333577971   -1.3800201175
 H  2.1745147764   2.0658783246   -1.0065119478
 H  1.1497717024   4.2428528836   -0.4911606129
 H  2.2964739166   5.834907543   1.0220876648
 H  5.5351825172   3.0525822859   1.4741165189
 H  7.780178998   2.1524653929   -1.7570945569
 H  10.2047596539   2.5650951506   -2.0376960214
 H  11.848284542   0.931894794   -1.1571567406
 H  8.6456999634   -1.5259273112   0.2791434864
 H  5.2338778795   -3.6308782145   0.7221242633
 H  4.0874373935   -5.778189754   0.5610310006
 H  1.4023544841   -5.7501373087   1.7125139236
 H  1.4352519412   -7.3583685603   3.5851760522
 H  1.924999389   -9.7577663799   3.164917972
 H  2.3973589871   -10.5228326763   0.8487658128
 H  2.4003340859   -8.9047581213   -1.0175644036
 H  2.7518651781   -6.149082077   -3.3800477811
 H  1.4880664118   -6.7735290601   -5.4078973827
 H  -0.8218269001   -7.6678873463   -5.2151459081
 H  -1.855284204   -7.9156383992   -2.969511525
 H  -0.6007537874   -7.2571734812   -0.9452987765
 H  1.1862276945   -4.0277244031   -2.0870759654
 H  2.3432890809   -1.8848110751   -1.9356837098
