72

 N  1.5652409522   -0.2809803051   1.3611920238
 C  2.6157794673   -0.246624098   0.8784620759
 C  3.9319766327   -0.1978320997   0.3137879695
 C  4.5972727023   1.0329428994   0.1541521854
 C  3.948640636   2.3473982837   0.3850744767
 C  2.6516764321   2.6222493455   -0.0529038389
 C  2.0941999308   3.8798083251   0.1482089648
 C  2.8201202788   4.8720476962   0.7910546544
 C  4.1172971601   4.6010232472   1.2211509487
 C  4.8847557021   5.6587294442   1.9535085773
 F  4.6481786124   6.8858247541   1.4546446922
 F  4.5531106281   5.7078815986   3.2596260065
 F  6.2121402103   5.4557133113   1.8998642
 C  4.6853818616   3.353081096   1.0141429348
 N  5.8826573966   1.0812398918   -0.1881993611
 C  6.5612117615   -0.0346794455   -0.4443385273
 C  7.9915855697   0.152537174   -0.791654625
 C  8.3568908143   1.2434727119   -1.5859637396
 C  9.6873874506   1.4627414646   -1.9125220369
 C  10.6730085515   0.6072468483   -1.4359127978
 C  10.3137259345   -0.4671879246   -0.628833251
 C  11.3681083244   -1.4113810222   -0.1372838962
 F  12.5495357651   -0.7962753531   0.047846872
 F  11.0303211522   -1.9855287771   1.0309697672
 F  11.5909271717   -2.4154743606   -1.0089135133
 C  8.9821619827   -0.7006462021   -0.3062140314
 C  5.9301214848   -1.2930157943   -0.4153935129
 C  6.6137877362   -2.4612472077   -0.8859888544
 N  7.1587201967   -3.3966644756   -1.293294775
 C  4.5924461836   -1.3965077431   -0.0007721366
 C  3.9116682875   -2.7063888262   0.1017203695
 C  4.4746550118   -3.7315956155   0.8886425107
 C  3.8640529685   -4.9652307917   1.0201923465
 C  2.6692193276   -5.1822558013   0.3298944666
 C  2.0899709728   -4.1655526652   -0.466027963
 C  2.7112930415   -2.9269577937   -0.5723485314
 C  0.8758486599   -4.7204039126   -1.0250212964
 C  -0.1113460838   -4.2249092937   -1.8777044485
 C  -1.170531623   -5.0494980358   -2.2257495675
 C  -1.2510256333   -6.3587360718   -1.7287152505
 C  -0.2826110004   -6.8728972497   -0.8786038864
 C  0.7819363434   -6.039786837   -0.535301946
 N  1.8735005206   -6.3075766396   0.2793582127
 C  2.1338438047   -7.5835445973   0.919627453
 C  1.3137793419   -7.8377976198   2.1692347943
 C  0.8690866501   -9.1298664188   2.4469539963
 C  0.1528229302   -9.3991486418   3.609168508
 C  -0.1334686866   -8.3738991944   4.5046167799
 C  0.3021641648   -7.0804753712   4.2307835486
 C  1.0225752625   -6.8144303277   3.0712300901
 H  2.079954428   1.8672424516   -0.5806743895
 H  1.0908112481   4.0870529831   -0.2079106036
 H  2.3869031185   5.8539332129   0.9491786686
 H  5.6987353114   3.1497862597   1.3384923457
 H  7.5872061506   1.9149312223   -1.9497026221
 H  9.9593731578   2.3068831429   -2.537174073
 H  11.7149496411   0.7798415082   -1.6823520425
 H  8.7288468536   -1.5273092153   0.3468223667
 H  5.3962585721   -3.5414052092   1.4290196384
 H  4.3050232602   -5.7303363789   1.6493347439
 H  2.276114342   -2.1483876133   -1.1912580707
 H  -0.0493063084   -3.2108238782   -2.2616118037
 H  -1.9474083804   -4.6800783874   -2.8877604579
 H  -2.0914717209   -6.9851011745   -2.0123393182
 H  -0.3576693144   -7.8834497876   -0.491790375
 H  1.9499499712   -8.3783384395   0.1910184801
 H  3.2006810184   -7.6211158733   1.155566207
 H  1.0841290188   -9.93205   1.7455253446
 H  -0.1884494402   -10.4104148344   3.8100302642
 H  -0.6967742755   -8.5800650052   5.4097630187
 H  0.0805529123   -6.2736580723   4.9232334758
 H  1.3578074919   -5.8019384897   2.8662615636
