63

 N  1.3887148457   -0.3573384587   0.4985133917
 C  2.5092940609   -0.2945352356   0.2193807792
 C  3.9058893551   -0.2182864139   -0.0927377828
 C  4.5790117169   1.0186475137   -0.0798533315
 C  3.8849394328   2.319767076   0.081541123
 C  2.6888754509   2.6059227408   -0.5808497032
 C  2.0854691153   3.8489674035   -0.4340817076
 C  2.6631946437   4.8153139305   0.3774483898
 C  3.8599502322   4.5336974658   1.0314628362
 C  4.4622736198   5.5556857348   1.9464140706
 F  4.2045690491   6.8109863037   1.5381703701
 F  3.9803587681   5.4541261085   3.201627424
 F  5.7979510122   5.4319842499   2.0370775315
 C  4.4763138006   3.299838461   0.8802794917
 N  5.9039373793   1.0813674476   -0.1872041145
 C  6.6269283443   -0.0216186583   -0.3678037748
 C  8.0945210586   0.181147028   -0.4457453365
 C  8.5859090644   1.3167094409   -1.0966088822
 C  9.951443755   1.5516381903   -1.1692376983
 C  10.8441781759   0.6660825231   -0.5783854299
 C  10.3562411726   -0.4543613349   0.085940357
 C  11.3154554156   -1.4295098501   0.6968349746
 F  12.4267017111   -0.8248808755   1.1529113939
 F  10.7715215834   -2.0969267756   1.7297661151
 F  11.721831774   -2.3593093387   -0.1908242791
 C  8.9908594987   -0.7027888579   0.1547171646
 C  6.0099899654   -1.2802330201   -0.5073927611
 C  6.7699450583   -2.4304862661   -0.898401998
 N  7.3789295643   -3.3524884037   -1.2398697644
 C  4.6223530541   -1.3986676   -0.3388778338
 C  3.941000991   -2.7118426058   -0.4195255237
 C  4.3282820984   -3.7665658481   0.4147238468
 C  3.6872420521   -4.9914720401   0.3460652694
 C  2.6447825507   -5.2104435805   -0.5662915704
 C  1.9273025499   -6.484836387   -0.6896035613
 C  2.1075037985   -7.5722772508   0.0729538102
 C  1.3939567381   -8.8508114323   -0.043739844
 C  1.6903312058   -9.8663721481   0.8741927785
 C  1.0486123463   -11.0978016555   0.8162805617
 C  0.0941077916   -11.3397790928   -0.1655220322
 C  -0.21084042   -10.3398081509   -1.0872060445
 C  0.4300860301   -9.1106190287   -1.02888374
 C  2.2736866906   -4.1508594778   -1.4037415749
 C  2.9024089489   -2.9176372505   -1.3301458003
 H  2.2384143194   1.8706518105   -1.2383178102
 H  1.1638628734   4.0662971766   -0.9632219506
 H  2.1927334044   5.785522342   0.4943679219
 H  5.4136295783   3.0885718922   1.3813143125
 H  7.887129737   2.0106795458   -1.5500748069
 H  10.3224863805   2.4310478157   -1.6846381993
 H  11.912012658   0.8499165977   -0.6256373229
 H  8.6347947657   -1.5668815361   0.7025558169
 H  5.12601639   -3.6203518532   1.1361743913
 H  4.0080274193   -5.7849447056   1.0122977353
 H  1.1828420203   -6.5029082179   -1.4824048372
 H  2.8440234412   -7.5449957773   0.8731532149
 H  2.4356280012   -9.6818531231   1.6432259731
 H  1.2958288207   -11.8688389029   1.5399175997
 H  -0.4096311352   -12.3003530698   -0.2151699752
 H  -0.9537101651   -10.520589645   -1.8585112688
 H  0.1784752151   -8.3483224833   -1.7590542401
 H  1.475427518   -4.299599989   -2.1249409415
 H  2.597313708   -2.1176724576   -1.9973832034
