65

 N  1.3169108499   0.1257184936   1.036577774
 C  2.3866484376   0.1021230423   0.5977500603
 C  3.7244503631   0.0681309178   0.0853740236
 C  4.4904832633   1.2461769173   -0.0118625215
 C  3.9394944973   2.6012792667   0.2346022461
 C  2.6750604414   2.9821719578   -0.2207216855
 C  2.2107647721   4.2740149868   -0.0049534449
 C  2.9977072676   5.1969124991   0.6695035845
 C  4.2620088721   4.8207719129   1.1161466308
 C  5.0988895279   5.7981876163   1.8831936139
 F  4.8780094657   7.065774322   1.4921453831
 F  4.8407703208   5.7540865935   3.2058425538
 F  6.4145516987   5.5603189581   1.741141581
 C  4.7380765994   3.5365890436   0.8953315242
 N  5.7868352854   1.1990851355   -0.3100644916
 C  6.3847983194   0.0411519131   -0.5785303236
 C  7.8388142266   0.1215764389   -0.8625666037
 C  8.3245142077   1.2030117629   -1.6037919979
 C  9.6810663062   1.3221844404   -1.8688376164
 C  10.5734087212   0.3740240612   -1.3832011511
 C  10.0943603918   -0.6914005984   -0.6284009087
 C  11.0429767464   -1.7372310896   -0.1275577205
 F  12.2730173844   -1.2411773624   0.0919177248
 F  10.6239755907   -2.2900355066   1.0248931747
 F  11.1874415695   -2.748453992   -1.0075921574
 C  8.7358045193   -0.8240726145   -0.3668601215
 C  5.6540700156   -1.1625049907   -0.6149386459
 C  6.2569593607   -2.3717740153   -1.0923098917
 N  6.7373375612   -3.3404638569   -1.5026721996
 C  4.30024352   -1.165959705   -0.2497460425
 C  3.5122496565   -2.4213396484   -0.2208812498
 C  3.9272737719   -3.4998796538   0.563009233
 C  3.1856807749   -4.6722563184   0.5884525488
 C  2.0228776306   -4.8060837543   -0.1760048559
 C  1.2191599901   -6.0563309866   -0.1001737236
 C  0.8143836314   -6.5045765966   1.137348392
 C  0.0204182917   -7.6621468687   1.2826136767
 C  -0.3675227402   -8.3701128045   0.1788574092
 C  0.0410602297   -7.9628314223   -1.1167359477
 C  -0.3350827466   -8.7067328501   -2.2654699682
 C  0.0838139601   -8.334626659   -3.5142639071
 C  0.9115574137   -7.2002044301   -3.6684023607
 C  1.28561293   -6.4566954149   -2.5794530432
 C  0.8516983238   -6.8002813961   -1.2703168947
 C  1.6151270307   -3.7211302336   -0.9594568323
 C  2.344631163   -2.5417370607   -0.9786997483
 H  2.0575062411   2.283150698   -0.7732150266
 H  1.2331535799   4.5636463916   -0.3749992743
 H  2.6368023398   6.2055767249   0.8386548387
 H  5.7272335543   3.2510983298   1.2331182941
 H  7.6277188141   1.9461812025   -1.9750166149
 H  10.0469418579   2.1601159151   -2.4526371808
 H  11.6352620408   0.4679776464   -1.5823946814
 H  8.3893202945   -1.6465115257   0.2478286444
 H  4.8255017981   -3.4191389822   1.1669641264
 H  3.5188989872   -5.5012827873   1.2044429407
 H  1.0921528123   -5.9399209373   2.0221336111
 H  -0.2872803204   -7.9761822479   2.2751980174
 H  -0.9874536596   -9.2570721779   0.2752480236
 H  -0.9597482401   -9.5853364062   -2.129480965
 H  -0.2086326279   -8.9122181054   -4.3858499994
 H  1.2586928129   -6.9191020767   -4.6581040523
 H  1.9329340915   -5.5986340961   -2.7172613505
 H  0.7083989185   -3.7937889058   -1.5508504743
 H  2.0103872908   -1.7141391104   -1.5961439564
