65

 C  2.3143291728   -0.7497869984   1.0336076112
 C  1.7421161388   -0.5088702811   2.4242822529
 N  0.6094212823   0.4043279944   2.4211521369
 C  -0.7149349211   0.0478273093   2.2134592764
 C  -1.267388179   -1.2189994864   2.0190995456
 C  -2.6409445335   -1.3015838978   1.8434849007
 C  -3.4532549604   -0.1577355203   1.8572347058
 C  -2.8992621412   1.0991214999   2.0464564887
 C  -1.5193509184   1.2081486121   2.2241478171
 C  -0.6212620628   2.3219806645   2.4392033426
 C  -0.8062334099   3.6950635935   2.5485205866
 C  0.3024891529   4.5188181152   2.7415709484
 C  0.1289468896   5.9842680532   2.846179001
 C  -0.748191865   6.5564668788   3.7818099262
 C  -1.3823384259   5.7190209238   4.7566922006
 N  -1.8719945666   5.0512695167   5.5643135553
 C  -0.9318101899   7.9523664789   3.8098148617
 C  -1.9045233203   8.6281833527   4.703255666
 C  -3.1873608138   8.1198652795   4.9203220977
 C  -4.0842706985   8.8006430374   5.7344667136
 C  -3.7112311039   9.9901447456   6.344738659
 C  -2.4355210047   10.5019337973   6.1222608339
 C  -2.0081708854   11.7601236353   6.8136332814
 F  -3.0432961128   12.5883868234   7.0386069008
 F  -1.4480348003   11.5102552835   8.014461403
 F  -1.0964170222   12.4450975662   6.1009493476
 C  -1.5378577207   9.8351371775   5.300773205
 N  -0.2030678438   8.7580315965   3.0407150238
 C  0.6822654633   8.2599250575   2.1807847976
 C  1.4542265251   9.2621718346   1.4055637789
 C  0.8068712667   10.4206445334   0.9607361029
 C  1.5023421729   11.38673877   0.2507695786
 C  2.8586091101   11.2217097639   -0.0119707371
 C  3.5064927229   10.082077181   0.4458484009
 C  4.9691731791   9.873870202   0.1995598406
 F  5.5297620748   10.8916299504   -0.4720180463
 F  5.6536195819   9.7339911993   1.3521014014
 F  5.1999310415   8.7536985146   -0.5132328177
 C  2.8140823009   9.1020983977   1.1506423067
 C  0.8321090463   6.8699125047   2.0134979977
 C  1.6309267476   6.3466817008   0.9452430391
 N  2.2535122244   5.9302164686   0.0638569115
 C  1.5916409654   3.9544880378   2.8330794604
 C  1.7950356287   2.5899586355   2.7435274544
 C  0.6791814449   1.7733477775   2.5442412223
 H  1.5609017803   -1.1833302468   0.3688998412
 H  3.1589074101   -1.4435913548   1.0920305972
 H  2.669229528   0.184862694   0.5885992798
 H  1.4099885517   -1.4482116765   2.8733392561
 H  2.5031029189   -0.0915284903   3.0879406996
 H  -0.6489133082   -2.1100418449   2.0018662395
 H  -3.0958644583   -2.2756154246   1.6899697164
 H  -4.5246109986   -0.260197476   1.7160595864
 H  -3.5268463862   1.9855524526   2.0556368779
 H  -1.800259356   4.122414582   2.4595369854
 H  -3.5029718148   7.2053020043   4.4311147206
 H  -5.0826515124   8.4043647763   5.8851623408
 H  -4.4092737061   10.5228784259   6.9810889364
 H  -0.5506286013   10.2435995851   5.1205112312
 H  -0.2487175948   10.5506115804   1.1715248341
 H  0.9887103417   12.2754022423   -0.1002589805
 H  3.4064257039   11.9769041324   -0.5633823817
 H  3.3487147675   8.2339176212   1.5199607281
 H  2.4451615032   4.6038543477   2.9990885298
 H  2.7938085984   2.1758857893   2.8255779802
