69

 N  1.4151152254   -0.0879421777   1.2142982189
 C  2.4838747321   -0.0677015507   0.7725881027
 C  3.8211349093   -0.036262246   0.2581659683
 C  4.5204754418   1.1820168553   0.1606263056
 C  3.8925112326   2.5024936928   0.4135080314
 C  2.6249970157   2.8254762169   -0.0754774767
 C  2.0854053684   4.0861843393   0.1514709137
 C  2.7984781341   5.0324271061   0.8736130163
 C  4.0653495087   4.7128503341   1.3567626029
 C  4.8133580351   5.7157573184   2.1808108865
 F  4.6011758101   6.9739364074   1.7543580424
 F  4.4378858088   5.6828697178   3.4754447334
 F  6.1406843994   5.5058999061   2.1594215348
 C  4.6176854596   3.4623568314   1.1219615381
 N  5.8175905929   1.2100833618   -0.1363821573
 C  6.4774142444   0.0859734424   -0.4061049247
 C  7.9229319084   0.2471832389   -0.6992556113
 C  8.3420567628   1.3461995306   -1.4538423753
 C  9.6886874264   1.5391913425   -1.7289849086
 C  10.6352758391   0.649282862   -1.2378920405
 C  10.2213220944   -0.4343422774   -0.4689638747
 C  11.2409835543   -1.4074775505   0.0388034401
 F  12.3835793152   -0.7954474422   0.3993337674
 F  10.8029359571   -2.094576232   1.1078485835
 F  11.5752347808   -2.3192855801   -0.8963309761
 C  8.874489203   -0.6424159897   -0.2000709869
 C  5.8162656979   -1.1567738442   -0.438858101
 C  6.4872104957   -2.3261518229   -0.9244180488
 N  7.0242187533   -3.2606036336   -1.3442235321
 C  4.4637431375   -1.240486134   -0.0711395379
 C  3.7497607293   -2.5360819988   -0.0324038431
 C  4.2708873735   -3.6033438911   0.7270468783
 C  3.6323429229   -4.8280850496   0.7911277339
 C  2.4531960911   -4.9882848358   0.0622114356
 C  1.9114790876   -3.9299214736   -0.7000133409
 C  2.5612666572   -2.7016297329   -0.7416248793
 C  0.6931449998   -4.4300611836   -1.3002326063
 C  -0.2616007368   -3.8700192257   -2.1504102657
 C  -1.3327531362   -4.6490392572   -2.5591707465
 C  -1.4536039523   -5.9786872918   -2.1292429535
 C  -0.518236833   -6.5559980565   -1.2831453871
 C  0.5522512337   -5.7645358171   -0.8692275784
 N  1.6264736698   -6.0939474376   -0.0426246146
 C  1.8394212085   -7.3548378373   0.5815478571
 C  3.0098055472   -8.0668682054   0.3260039303
 C  3.2175844587   -9.2940639149   0.9453709828
 C  2.254544508   -9.8194497873   1.8014393601
 C  1.0832101245   -9.1088876171   2.0456138144
 C  0.8758824155   -7.8723150912   1.4452097738
 H  2.0645770109   2.1052792756   -0.6611491766
 H  1.1062978874   4.3323567228   -0.2451398593
 H  2.3781157935   6.016094225   1.0534232589
 H  5.6083276106   3.221654595   1.4887000027
 H  7.6022735295   2.0446520951   -1.8288867993
 H  10.0030884573   2.389463136   -2.3247486641
 H  11.689477959   0.8015485491   -1.443264048
 H  8.5772533107   -1.4774994649   0.4226257019
 H  5.1830795397   -3.4559391951   1.2959445577
 H  4.0390753217   -5.6321866615   1.3933102028
 H  2.1557968378   -1.8887067535   -1.3357276101
 H  -0.1627411914   -2.8421518074   -2.4867229935
 H  -2.085101943   -4.2295345213   -3.2196025335
 H  -2.2978034733   -6.5728237534   -2.4658619484
 H  -0.618201389   -7.5852630058   -0.9575405597
 H  3.7473238849   -7.6609146796   -0.3586866158
 H  4.1315563311   -9.8453878278   0.7476546551
 H  2.4164310953   -10.7815142821   2.2775037426
 H  0.3300428666   -9.5117928235   2.7155656534
 H  -0.0256766526   -7.3033421409   1.6473063483
