63

 N  1.2102431383   0.1794270621   1.7624780915
 C  2.2880192208   0.1661828881   1.3435987686
 C  3.6317108702   0.1341589913   0.8468005343
 C  4.3700856302   1.3159970038   0.6437223509
 C  3.7909953912   2.6738835576   0.785875705
 C  2.5150327984   2.9882235019   0.3120166186
 C  2.0201328449   4.2808433574   0.4336723422
 C  2.7872004305   5.2705522702   1.0325302482
 C  4.0628922575   4.9603436838   1.4963808633
 C  4.8802878284   6.0092085939   2.1866527631
 F  4.594238933   7.2455170526   1.7423247728
 F  4.6657657077   6.0197353358   3.5177784468
 F  6.2000119944   5.8181181599   2.0131059976
 C  4.5700890694   3.6752133268   1.3678042912
 N  5.6639395061   1.2694907038   0.3338346891
 C  6.2864996059   0.1067708264   0.1563212393
 C  7.7347672283   0.1938977754   -0.1521079235
 C  8.6644947856   -0.6907297123   0.3983870135
 C  10.017871861   -0.5548268026   0.112365575
 C  10.4567614647   0.4584625387   -0.7274965613
 C  9.5308990888   1.3466405883   -1.2703107899
 C  9.9999653886   2.4120592891   -2.213207494
 F  11.2039770281   2.8982511882   -1.861119487
 F  10.1291268467   1.9479507194   -3.4726490976
 F  9.1511609316   3.4524060362   -2.2710296752
 C  8.1799625588   1.2259856305   -0.9807880091
 C  5.5820908408   -1.110835818   0.2357466854
 C  6.1995010286   -2.3565746827   -0.1113542902
 N  6.6847397281   -3.3628818085   -0.4100636792
 C  4.2338714275   -1.108502821   0.6124881002
 C  3.4887942552   -2.38300426   0.8008706949
 C  3.8062044081   -3.1696631031   1.9090150572
 C  3.1336948893   -4.3541820212   2.1584944208
 C  2.1266933946   -4.7946831457   1.2969129895
 C  1.4108535915   -6.0200351287   1.5331150916
 C  0.4422124825   -6.4391675481   0.6880764275
 C  0.0920031701   -5.676397758   -0.4801282175
 C  -0.9045328334   -6.0952242932   -1.3662268433
 C  -1.2201730571   -5.3391487902   -2.4885423912
 C  -0.5482911035   -4.1516921664   -2.7489845193
 C  0.4539057149   -3.6975674852   -1.8866477458
 C  1.1744498077   -2.4782165508   -2.1270709084
 C  2.140573589   -2.0488970717   -1.2832496464
 C  2.4886561937   -2.7947512281   -0.1006537422
 C  1.8029513112   -4.0143058545   0.1553914957
 C  0.7821190627   -4.4621922762   -0.73779838
 H  1.9127720337   2.2346459763   -0.1827714618
 H  1.0336357991   4.5180670418   0.0502000969
 H  2.4015018502   6.2794046952   1.1297709639
 H  5.567980653   3.4406405796   1.7190302946
 H  8.3427934762   -1.4719975161   1.0777721276
 H  10.7331791809   -1.2391956764   0.5557227919
 H  11.5125173917   0.5645032825   -0.9529517748
 H  7.4642542308   1.9257384566   -1.3952475019
 H  4.582256177   -2.8371087156   2.5912916346
 H  3.3864599102   -4.9479977428   3.0315376058
 H  1.6711687798   -6.6020285235   2.4123300463
 H  -0.0926219469   -7.3659371699   0.8751147757
 H  -1.4317017207   -7.0237456024   -1.166620011
 H  -1.9964385975   -5.6795984265   -3.1667954371
 H  -0.7956820612   -3.5636863093   -3.6281299083
 H  0.9279896088   -1.9026148248   -3.0146262376
 H  2.6731149245   -1.1301592797   -1.5033998781
