62

 C  -2.8659698662   -0.8217425279   -0.0442094365
 C  -2.5261816291   -0.8093160008   -1.5102614168
 C  -3.5302873163   -0.90194268   -2.4778593502
 C  -3.2285869513   -0.8786859304   -3.8317535096
 C  -1.9045578037   -0.7639595287   -4.2722735626
 C  -1.5789855735   -0.7406834151   -5.7198007911
 C  -2.4325608443   -0.1228045642   -6.6404236307
 C  -2.1269202365   -0.0931670074   -7.9930493521
 C  -0.9571935524   -0.6920548453   -8.4647998192
 C  -0.629487576   -0.6629254035   -9.9127122264
 C  -0.4085111477   0.5464891398   -10.5860235516
 C  -0.5440419891   1.7819375294   -9.8726151977
 N  -0.662326855   2.7777770477   -9.2968164996
 C  -0.0608524443   0.5335534451   -11.9503616831
 C  0.2599502089   1.7589702559   -12.7241575907
 C  1.0781420013   2.7689560997   -12.2125301664
 C  1.3778740064   3.8861604068   -12.9822108432
 C  0.8626109159   4.011816681   -14.2651640737
 C  0.0536611905   3.0020441147   -14.778282616
 C  -0.464969387   3.0967699016   -16.1804299064
 F  -0.5714624423   4.3703094274   -16.5966986222
 F  0.3426615356   2.4695138186   -17.0594966584
 F  -1.6792035375   2.5322204489   -16.3082775311
 C  -0.2408123365   1.8765380746   -14.0212239828
 N  -0.020727281   -0.6045781191   -12.6388337632
 C  -0.2648115706   -1.7708472805   -12.0456250487
 C  -0.21272012   -2.9591651116   -12.9340904377
 C  0.7799906472   -3.0194499784   -13.9162939548
 C  0.8480692166   -4.1002547622   -14.7840752937
 C  -0.0852873757   -5.1251456897   -14.6958270374
 C  -1.0861119062   -5.0569908702   -13.7318116142
 C  -2.0752547661   -6.1763038454   -13.6186978586
 F  -2.3946670708   -6.6879374393   -14.8211462121
 F  -1.5948767225   -7.1994756105   -12.8838137473
 F  -3.2213720718   -5.786791399   -13.0341151442
 C  -1.1544855723   -3.9848570655   -12.8508035061
 C  -0.5293850145   -1.8422050813   -10.6642508563
 C  -0.696340301   -3.1063796152   -10.0103863782
 N  -0.8221741942   -4.1252546125   -9.4780999626
 C  -0.1007895383   -1.3163383269   -7.5558571836
 C  -0.4082790772   -1.3349795669   -6.2035537944
 C  -0.8996126711   -0.6733897009   -3.3055260823
 C  -1.2077903263   -0.695697124   -1.9501814774
 H  -3.4086594615   0.0863675711   0.243159764
 H  -1.9653293724   -0.8813500715   0.5729300617
 H  -3.5085322664   -1.6720389071   0.2078565309
 H  -4.5663935151   -1.0015271322   -2.1642049481
 H  -4.0312386687   -0.9731678545   -4.5567988583
 H  -3.3409456437   0.3595795832   -6.294862477
 H  -2.8055595591   0.3933929104   -8.686548979
 H  1.5081659585   2.6762498369   -11.2217031987
 H  2.0205755246   4.661247846   -12.5787568968
 H  1.0883370443   4.8874447907   -14.8635467153
 H  -0.8675761451   1.0907715595   -14.4270122319
 H  1.5011649379   -2.2132105765   -13.9909009437
 H  1.6283107482   -4.1417982935   -15.5365865227
 H  -0.0411138664   -5.9672710329   -15.3780600548
 H  -1.9595208126   -3.9401738383   -12.1274898078
 H  0.8144359995   -1.7841088969   -7.9045070663
 H  0.2659656286   -1.8358158328   -5.5166984224
 H  0.1362527304   -0.5641375388   -3.6120461305
 H  -0.4064519149   -0.6171874117   -1.2203417324
