60

 N  1.3143896857   -0.5935080468   1.545579987
 C  2.4002990548   -0.5300722981   1.1506229315
 C  3.7450495395   -0.4516102191   0.6614366628
 C  3.9848679489   -0.4312496954   -0.7153281551
 C  5.2863770053   -0.3550959989   -1.1824377003
 C  6.3676103338   -0.2984206029   -0.2950280398
 C  7.7593395485   -0.2165272744   -0.8025574999
 C  8.0597370694   0.5234431541   -1.950582682
 C  9.3604128758   0.6070745291   -2.4242568739
 C  10.393976144   -0.0613025634   -1.7651552427
 C  11.7858279106   0.0161414139   -2.2755262054
 C  12.4616283979   1.2397047535   -2.3796773778
 C  11.7972672639   2.4444811432   -1.9786973647
 N  11.2555274441   3.4143595741   -1.6577619055
 C  13.7665056512   1.2742139496   -2.9075061416
 C  14.547046352   2.5273690211   -3.0669203387
 C  14.6199291295   3.4907355357   -2.0595615297
 C  15.384339772   4.6380831569   -2.2398028347
 C  16.0759437076   4.8386987908   -3.4255146645
 C  16.0101382214   3.8731970986   -4.4276309956
 C  16.7995013018   4.0652896793   -5.6862543181
 F  16.8236985893   5.3541183175   -6.0714045067
 F  18.0850731145   3.6873104258   -5.5369089494
 F  16.3047598293   3.3519911221   -6.7124221995
 C  15.2619062074   2.7189477215   -4.2506553187
 N  14.3772444768   0.162934508   -3.3127887737
 C  13.7791849223   -1.0214991096   -3.2032485091
 C  14.5722173323   -2.1865553023   -3.6691903639
 C  15.331716562   -2.0647890683   -4.8361385209
 C  16.1024304352   -3.126379889   -5.2885710336
 C  16.1418672505   -4.315809056   -4.5716308425
 C  15.4028334106   -4.4311354968   -3.3987438213
 C  15.4200825049   -5.7207703497   -2.6364366911
 F  16.613208144   -6.3363437518   -2.7154433601
 F  15.1487517259   -5.5429450976   -1.3315363809
 F  14.5065287233   -6.5948729873   -3.104255579
 C  14.6173415135   -3.3781081825   -2.9460415514
 C  12.4699315438   -1.1321117128   -2.6970101822
 C  11.7849190023   -2.3909169737   -2.7018334403
 N  11.2236860112   -3.4016988445   -2.7241128459
 C  10.1016380333   -0.8091207174   -0.6226651235
 C  8.8014635493   -0.8782363692   -0.1452640038
 C  6.1096379184   -0.3202193617   1.0807648007
 C  4.8129886157   -0.3958921215   1.5615351513
 H  3.154696681   -0.4819840601   -1.4112099325
 H  5.4637274414   -0.3608266378   -2.2524330981
 H  7.2725231397   1.0578995872   -2.4718614208
 H  9.5701587521   1.1866296481   -3.3174710808
 H  14.102524446   3.3396791461   -1.1189527993
 H  15.4405758543   5.3772562445   -1.4479887111
 H  16.6646314339   5.7379303455   -3.5722394985
 H  15.2180442157   1.9693151934   -5.0317612997
 H  15.3083774758   -1.1331649325   -5.3905805969
 H  16.6801099209   -3.0254215707   -6.2011460302
 H  16.7509207324   -5.1442717043   -4.916723872
 H  14.071786307   -3.482280465   -2.0158635113
 H  10.8949347182   -1.3333957054   -0.0993231565
 H  8.5941977999   -1.4724454729   0.7385739964
 H  6.9316744216   -0.2574705761   1.7856180242
 H  4.6234228867   -0.4046418442   2.6292253214
