77

C -5.76575 -6.20094 1.33406
C -5.75192 -6.38003 -0.180021
C -6.0423 -5.08815 -0.960844
C -4.98754 -4.02438 -0.78175
C -3.75829 -4.12627 -1.43749
C -2.76594 -3.17232 -1.26049
C -2.98206 -2.07581 -0.420839
C -1.96731 -1.01162 -0.228648
N -2.4312 0.237632 -0.253055
C -1.60871 1.27587 -0.105352
C -2.24085 2.61431 -0.173342
C -3.49185 2.80735 0.423211
C -4.11713 4.04206 0.362336
C -3.52914 5.11809 -0.31088
C -4.21441 6.46142 -0.352574
C -4.1092 7.24616 0.965073
C -2.6849 7.65055 1.32912
C -2.2931 4.91156 -0.923798
C -1.65169 3.68055 -0.855847
C -0.230658 1.08433 0.121847
C 0.620807 2.19549 0.428107
N 1.30442 3.08746 0.702567
C 0.30072 -0.213567 0.163941
C 1.74368 -0.446146 0.411625
C 2.15745 -1.21971 1.5145
C 3.49546 -1.45314 1.77628
C 4.43892 -0.905287 0.904033
C 4.0419 -0.131962 -0.212356
C 2.6921 0.103266 -0.449353
C 5.25721 0.258303 -0.893555
C 5.52544 1.01233 -2.03695
C 6.84387 1.19602 -2.42475
C 7.89196 0.633071 -1.68102
C 7.6509 -0.119289 -0.540847
C 6.3224 -0.298024 -0.152066
N 5.81355 -0.987226 0.938279
C 6.59707 -1.7442 1.90236
C 6.84484 -3.18271 1.46749
C -0.597944 -1.27539 -0.022781
C -0.109568 -2.62134 0.029992
N 0.289045 -3.70623 0.077566
C -4.21829 -1.95418 0.21911
C -5.19901 -2.92076 0.047649
H -4.99429 -5.49783 1.66508
H -5.58549 -7.15375 1.84291
H -6.73394 -5.81787 1.67711
H -4.7809 -6.78034 -0.496635
H -6.5027 -7.12643 -0.464977
H -6.12432 -5.33449 -2.02567
H -7.01527 -4.69208 -0.648409
H -3.57777 -4.96137 -2.10899
H -1.83473 -3.26979 -1.80759
H -3.96745 1.98168 0.941541
H -5.08437 4.17461 0.839793
H -3.78685 7.06298 -1.16276
H -5.27476 6.31476 -0.588099
H -4.73136 8.14456 0.877032
H -4.54268 6.64728 1.77551
H -2.23614 8.26648 0.541075
H -2.6679 8.23241 2.25671
H -2.0411 6.77681 1.47444
H -1.8262 5.72454 -1.4725
H -0.703095 3.54912 -1.36524
H 1.41 -1.62894 2.18645
H 3.79233 -2.04548 2.63472
H 2.38019 0.691151 -1.30743
H 4.71307 1.44621 -2.61277
H 7.07011 1.77849 -3.31236
H 8.91696 0.786998 -2.00502
H 8.46912 -0.553701 0.02355
H 7.54289 -1.21668 2.04897
H 6.06669 -1.71577 2.85716
H 7.39358 -3.2177 0.521379
H 7.4363 -3.70589 2.22549
H 5.90086 -3.72099 1.33818
H -4.40474 -1.09943 0.860613
H -6.1499 -2.8139 0.56215
