74

C 6.14446 -5.85026 -1.06178
C 6.05619 -5.95969 0.45643
C 6.19279 -4.61309 1.18513
C 5.06634 -3.65266 0.89434
C 3.81394 -3.82732 1.48845
C 2.75828 -2.97136 1.20857
C 2.93111 -1.90179 0.324732
C 1.84574 -0.938391 0.024879
N 2.2138 0.34003 -0.045558
C 1.32099 1.30029 -0.280839
C 1.86631 2.67557 -0.364515
C 1.43667 3.59313 -1.32814
C 2.0015 4.85902 -1.39192
C 3.00081 5.25305 -0.49848
C 3.58062 6.64436 -0.561359
C 2.65616 7.72317 0.025588
C 2.4033 7.57027 1.52136
C 3.43128 4.32736 0.454594
C 2.88254 3.05454 0.516976
C -0.049555 0.997493 -0.414642
C -1.02097 2.03925 -0.566659
N -1.80895 2.87868 -0.679142
C -0.476174 -0.338851 -0.398226
C -1.90479 -0.696936 -0.584451
C -2.29158 -1.49251 -1.68082
C -3.61347 -1.84122 -1.89407
C -4.56552 -1.38555 -0.980091
C -4.19378 -0.596434 0.133643
C -2.86104 -0.24632 0.322911
C -5.41049 -0.325249 0.867817
C -5.69773 0.383703 2.03501
C -7.01032 0.442138 2.47802
C -8.03344 -0.201879 1.76618
C -7.77346 -0.911831 0.603103
C -6.45186 -0.96255 0.157744
N -5.92812 -1.58483 -0.964067
C -6.67563 -2.38343 -1.91124
C 0.506531 -1.31956 -0.196742
C 0.129762 -2.7015 -0.221641
N -0.178127 -3.81613 -0.252825
C 4.18795 -1.70661 -0.2546
C 5.23346 -2.57644 0.020039
H 5.3394 -5.23015 -1.46977
H 6.07194 -6.8373 -1.53053
H 7.09692 -5.40371 -1.37036
H 5.10442 -6.42607 0.739224
H 6.84768 -6.62559 0.819898
H 6.23139 -4.80217 2.26401
H 7.14662 -4.15042 0.907007
H 3.66505 -4.64123 2.1929
H 1.80858 -3.12122 1.71026
H 0.683266 3.31246 -2.05585
H 1.66707 5.55135 -2.1598
H 4.53747 6.66387 -0.027335
H 3.79227 6.89655 -1.60674
H 3.10933 8.7024 -0.168698
H 1.70142 7.71061 -0.514477
H 3.34313 7.59681 2.08514
H 1.76735 8.37934 1.89583
H 1.90431 6.62325 1.75208
H 4.21327 4.60685 1.15506
H 3.23548 2.34519 1.25782
H -1.53734 -1.82929 -2.3848
H -3.89063 -2.4511 -2.7467
H -2.56794 0.355874 1.17753
H -4.90406 0.879108 2.58676
H -7.25092 0.988256 3.38476
H -9.05373 -0.146679 2.13394
H -8.57216 -1.41074 0.064895
H -6.20484 -2.32241 -2.89386
H -6.7248 -3.43355 -1.60356
H -7.6903 -1.99116 -1.99788
H 4.33824 -0.870517 -0.929077
H 6.20021 -2.41423 -0.448393
