74

C 5.95769 -5.96411 -0.598984
C 5.55615 -5.29038 0.717346
C 6.78687 -4.73693 1.44358
C 4.51044 -4.21428 0.496744
C 3.251 -4.31056 1.08762
C 2.28205 -3.3339 0.890047
C 2.55551 -2.22123 0.09286
C 1.57128 -1.13351 -0.115238
N 2.06691 0.102707 -0.090985
C 1.27442 1.16414 -0.231191
C 1.95883 2.47821 -0.227277
C 1.60428 3.50786 -1.10048
C 2.30078 4.71054 -1.0869
C 3.35945 4.92676 -0.205401
C 4.10447 6.24767 -0.194498
C 3.95361 6.96512 1.15119
C 5.58345 6.0639 -0.550781
C 3.71382 3.88682 0.661221
C 3.03457 2.6796 0.645265
C -0.122061 1.01323 -0.355608
C -0.98451 2.15646 -0.394284
N -1.68552 3.07647 -0.414458
C -0.682232 -0.270285 -0.441344
C -2.14205 -0.468506 -0.622968
C -2.62332 -1.1251 -1.77259
C -3.97628 -1.32679 -1.98044
C -4.86445 -0.864683 -1.00693
C -4.39766 -0.213588 0.159398
C -3.03416 -0.00968 0.343396
C -5.56819 0.107338 0.946612
C -5.7643 0.735493 2.17723
C -7.05697 0.87894 2.65813
C -8.15053 0.399923 1.92126
C -7.98145 -0.227433 0.695565
C -6.67907 -0.364092 0.213376
N -6.23988 -0.934362 -0.970319
C -7.08621 -1.5764 -1.95297
C 0.198366 -1.35819 -0.34424
C -0.316508 -2.68826 -0.479223
N -0.736022 -3.75951 -0.600159
C 3.82466 -2.1065 -0.486041
C 4.7793 -3.092 -0.294694
H 6.43632 -5.25167 -1.27975
H 5.08814 -6.38844 -1.11156
H 6.66943 -6.77516 -0.411023
H 5.10288 -6.05376 1.36019
H 7.29485 -3.97633 0.840548
H 6.51372 -4.28106 2.40091
H 7.50543 -5.53925 1.64284
H 3.02255 -5.16265 1.72176
H 1.32379 -3.43239 1.3881
H 0.803796 3.36989 -1.81882
H 2.01712 5.495 -1.78293
H 3.65001 6.8812 -0.964926
H 4.40467 6.38391 1.96295
H 4.45192 7.94008 1.12193
H 2.90003 7.1301 1.39945
H 5.70199 5.57751 -1.52458
H 6.08918 7.03455 -0.592936
H 6.09901 5.45165 0.19718
H 4.53533 4.02132 1.35877
H 3.32794 1.88102 1.31817
H -1.91754 -1.4701 -2.52137
H -4.32469 -1.83168 -2.87453
H -2.66978 0.484554 1.23881
H -4.91677 1.10323 2.74842
H -7.22704 1.36407 3.61419
H -9.15382 0.519336 2.31932
H -8.83361 -0.599983 0.137272
H -6.60072 -1.54566 -2.92929
H -7.29014 -2.61971 -1.68883
H -8.03254 -1.03736 -2.02865
H 4.05276 -1.23856 -1.09539
H 5.75115 -2.98442 -0.767484
