87

C -5.05683 6.91379 1.26778
C -5.56085 5.81655 0.324859
C -6.93361 5.33818 0.828482
C -5.71975 6.42203 -1.08058
C -4.60248 4.62352 0.255746
C -3.41392 4.56232 0.984447
C -2.55899 3.46851 0.892543
C -2.8726 2.38944 0.067574
C -2.01207 1.18834 -0.036347
N -2.65432 0.022054 -0.081992
C -1.98649 -1.12875 -0.145843
C -2.82101 -2.34959 -0.228476
C -2.50523 -3.41819 -1.0661
C -3.3363 -4.53168 -1.1382
C -4.50228 -4.62322 -0.376882
C -5.43375 -5.83848 -0.423724
C -4.93266 -6.9189 -1.38741
C -5.53539 -6.45407 0.982628
C -6.83218 -5.39107 -0.883289
C -4.81308 -3.53772 0.454495
C -3.99987 -2.41981 0.522255
C -0.576938 -1.1504 -0.114187
C 0.139989 -2.39003 -0.070993
N 0.723876 -3.38751 -0.023532
C 0.140535 0.054584 -0.120893
C 1.62511 0.073443 -0.141685
C 2.30208 0.649474 -1.23396
C 3.68397 0.687588 -1.29205
C 4.39701 0.147819 -0.221338
C 3.73587 -0.439037 0.87927
C 2.34537 -0.477919 0.914395
C 4.7652 -0.907138 1.78235
C 4.73908 -1.548 3.02201
C 5.93982 -1.85285 3.64369
C 7.16105 -1.52067 3.03883
C 7.21199 -0.885143 1.80698
C 6.0007 -0.587214 1.18368
N 5.76715 0.053372 -0.032398
C 6.76596 0.536292 -0.923143
C 7.70816 -0.344152 -1.45172
C 8.68878 0.133276 -2.31375
C 8.72005 1.47992 -2.66324
C 7.77141 2.35333 -2.14013
C 6.79885 1.88758 -1.26264
C -0.605007 1.24247 -0.106993
C 0.082365 2.49788 -0.168534
N 0.643714 3.50745 -0.230022
C -4.07348 2.42901 -0.649841
C -4.9107 3.52765 -0.562839
H -5.77211 7.74253 1.2774
H -4.08951 7.31486 0.947737
H -4.9544 6.55343 2.29668
H -7.63034 6.18222 0.879088
H -7.37081 4.58458 0.166533
H -6.8555 4.90354 1.83098
H -4.75811 6.77599 -1.46786
H -6.12505 5.6975 -1.79333
H -6.40557 7.27577 -1.0466
H -3.13547 5.37252 1.64742
H -1.65915 3.45619 1.49767
H -1.6231 -3.38236 -1.69595
H -3.05747 -5.33312 -1.81157
H -3.94733 -7.29911 -1.0984
H -5.62865 -7.76393 -1.38071
H -4.86904 -6.55104 -2.41678
H -5.93569 -5.74261 1.71121
H -6.20155 -7.32373 0.964987
H -4.55428 -6.78682 1.33858
H -7.26717 -4.65083 -0.205042
H -6.79487 -4.95075 -1.88565
H -7.50978 -6.25138 -0.916855
H -5.71134 -3.56287 1.06308
H -4.26862 -1.591 1.16844
H 1.72789 1.05936 -2.05863
H 4.18862 1.12348 -2.14653
H 1.83049 -0.921237 1.76115
H 3.79217 -1.79891 3.49095
H 5.93793 -2.35154 4.60775
H 8.09009 -1.76429 3.5454
H 8.16061 -0.629401 1.34838
H 7.66542 -1.39654 -1.1908
H 9.42365 -0.553782 -2.72164
H 9.48268 1.84828 -3.34232
H 7.79293 3.40564 -2.40581
H 6.06869 2.56699 -0.835101
H -4.34042 1.5917 -1.2857
H -5.82605 3.5294 -1.14597
