78

C -7.41204 -7.08356 -0.38708
O -6.38532 -6.08491 -0.435578
C -6.56264 -5.0295 0.364215
O -7.52099 -4.90064 1.09623
C -5.45826 -4.03518 0.256558
C -4.3752 -4.21833 -0.601587
C -3.36671 -3.26688 -0.661713
C -3.4331 -2.11858 0.130764
C -2.39147 -1.06186 0.072054
N -2.84667 0.188863 0.05258
C -2.00524 1.21778 -0.020478
C -2.63999 2.56034 -0.004582
C -2.13064 3.61009 0.763238
C -2.77284 4.84018 0.781695
C -3.92804 5.03674 0.026823
C -4.65118 6.33932 0.006754
O -5.65343 6.54765 -0.643572
O -4.07633 7.25982 0.78596
C -4.71891 8.54048 0.815986
C -4.44327 3.98836 -0.735777
C -3.81086 2.75687 -0.743807
C -0.615429 1.01687 -0.122744
C 0.275659 2.1275 -0.286154
N 0.992914 3.02385 -0.425754
C -0.090014 -0.282971 -0.06366
C 1.3707 -0.533809 -0.127663
C 2.01958 -1.16871 0.949459
C 3.38087 -1.4158 0.930933
C 4.09808 -1.02969 -0.202377
C 3.46422 -0.392997 -1.29324
C 2.09738 -0.14036 -1.24955
C 4.49467 -0.143874 -2.27824
C 4.49651 0.444494 -3.54368
C 5.69102 0.528806 -4.24217
C 6.87934 0.034134 -3.68479
C 6.90341 -0.552544 -2.42789
C 5.69762 -0.641545 -1.73111
N 5.44131 -1.17756 -0.475706
C 6.39857 -1.82736 0.399558
C 6.88805 -0.965039 1.54662
C 7.16045 -1.55499 2.78043
C 7.65134 -0.794862 3.83747
C 7.86819 0.569334 3.67313
C 7.5931 1.16598 2.44598
C 7.10761 0.40334 1.38897
C -1.01059 -1.33523 0.057418
C -0.527563 -2.68047 0.162172
N -0.136379 -3.76493 0.253398
C -4.53284 -1.92941 0.973745
C -5.53198 -2.88519 1.04272
H -7.10346 -7.85751 -1.08875
H -8.37246 -6.66032 -0.688803
H -7.49655 -7.49773 0.619743
H -4.32165 -5.10053 -1.22788
H -2.54338 -3.41299 -1.35149
H -1.24668 3.46695 1.37392
H -2.37702 5.64497 1.38915
H -4.73241 8.98572 -0.181084
H -5.74164 8.4475 1.18734
H -4.12514 9.152 1.49433
H -5.34381 4.14982 -1.31731
H -4.21568 1.93899 -1.32922
H 1.44304 -1.45283 1.82382
H 3.86774 -1.88702 1.77748
H 1.60078 0.340507 -2.08669
H 3.57566 0.829755 -3.97174
H 5.71025 0.983362 -5.22765
H 7.80493 0.114155 -4.24693
H 7.83176 -0.922097 -2.00575
H 5.94212 -2.73954 0.794362
H 7.2427 -2.1463 -0.217695
H 6.98367 -2.61908 2.91492
H 7.85632 -1.26902 4.79282
H 8.24604 1.16603 4.49796
H 7.75727 2.23091 2.30972
H 6.89553 0.878169 0.435602
H -4.5928 -1.03197 1.57917
H -6.38009 -2.75011 1.70427
