75

C -6.10237 7.8155 1.11992
O -5.23997 6.67261 1.05742
C -5.57639 5.73797 0.164115
O -6.54338 5.82685 -0.562492
C -4.63653 4.58196 0.160344
C -3.53724 4.51464 1.01465
C -2.68548 3.41973 0.967565
C -2.92731 2.3769 0.07081
C -2.05864 1.17318 0.010873
N -2.70051 0.007822 -0.046126
C -2.02343 -1.138 -0.087639
C -2.85052 -2.37031 -0.124302
C -3.99818 -2.38823 -0.922285
C -4.80394 -3.51445 -0.969066
C -4.48154 -4.634 -0.200615
C -5.31467 -5.86926 -0.207914
O -5.06842 -6.85673 0.451729
O -6.36835 -5.77443 -1.0238
C -7.21619 -6.92818 -1.08433
C -3.34988 -4.61243 0.61199
C -2.53608 -3.49049 0.649118
C -0.616058 -1.15389 -0.118609
C 0.097728 -2.38311 -0.305177
N 0.672333 -3.37135 -0.480142
C 0.099527 0.052057 -0.074256
C 1.58095 0.072689 -0.121861
C 2.2438 0.755417 -1.16056
C 3.62443 0.793636 -1.23705
C 4.35194 0.146253 -0.237691
C 3.7051 -0.547979 0.808029
C 2.31594 -0.588129 0.859735
C 4.74592 -1.10642 1.64394
C 4.73523 -1.86787 2.81355
C 5.94376 -2.23569 3.38383
C 7.15707 -1.8461 2.79776
C 7.1924 -1.09056 1.63503
C 5.97329 -0.730093 1.06216
N 5.72371 0.030291 -0.080189
C 6.71106 0.592794 -0.936551
C 7.64647 -0.235614 -1.55394
C 8.61565 0.318491 -2.38231
C 8.64222 1.69107 -2.6101
C 7.70052 2.51284 -1.99837
C 6.73962 1.96913 -1.15345
C -0.652444 1.2347 0.000452
C 0.027705 2.49579 0.039485
N 0.578642 3.51212 0.068977
C -4.04419 2.43907 -0.768377
C -4.88552 3.53775 -0.730578
H -5.68185 8.46005 1.89096
H -7.11711 7.51546 1.38973
H -6.11939 8.33588 0.160038
H -3.34822 5.31354 1.72141
H -1.8472 3.37301 1.65321
H -4.25067 -1.51531 -1.5137
H -5.6841 -3.52439 -1.6006
H -6.65742 -7.79586 -1.44114
H -7.63801 -7.14579 -0.100894
H -8.00889 -6.6746 -1.78711
H -3.11646 -5.48041 1.21789
H -1.67177 -3.48232 1.30358
H 1.65957 1.2465 -1.93193
H 4.1175 1.31078 -2.05193
H 1.81196 -1.11447 1.66451
H 3.79422 -2.16257 3.26862
H 5.95415 -2.82825 4.29316
H 8.09258 -2.14036 3.26388
H 8.13544 -0.791683 1.19149
H 7.60768 -1.30716 -1.38769
H 9.34537 -0.328286 -2.8594
H 9.39577 2.11965 -3.26346
H 7.71831 3.58471 -2.16915
H 6.01542 2.60677 -0.657024
H -4.2423 1.62473 -1.45632
H -5.74504 3.59721 -1.38856
