75

C 6.34675 5.87041 -0.267433
C 5.45691 4.66081 -0.203661
C 5.74074 3.62145 0.682487
C 4.93954 2.49178 0.755574
C 3.80753 2.38904 -0.053552
C 2.97133 1.16919 0.025249
N 3.63198 0.017948 0.145728
C 2.98305 -1.1447 0.203926
C 3.83592 -2.35156 0.317809
C 4.94761 -2.31761 1.16032
C 5.76713 -3.4314 1.26858
C 5.52181 -4.59145 0.533654
C 6.43039 -5.78162 0.664283
C 4.41738 -4.62449 -0.335661
C 4.12981 -5.84626 -1.16496
C 3.59046 -3.50844 -0.426734
C 1.57383 -1.19178 0.167325
C 0.872766 -2.43697 0.270933
N 0.293992 -3.43426 0.362082
C 0.839359 -0.002468 0.068314
C -0.646108 -0.005273 0.063166
C -1.359 -0.505104 1.15484
C -2.74614 -0.510278 1.14526
C -3.43811 -0.005062 0.045227
N -4.85462 -0.007237 0.035089
C -5.67944 0.542572 1.01678
C -5.33651 1.23071 2.18049
C -6.36893 1.69528 2.98264
C -7.71295 1.48942 2.64053
C -8.04758 0.815572 1.476
C -7.02629 0.339456 0.652525
C -7.01579 -0.371036 -0.608878
C -8.02313 -0.855559 -1.44455
C -7.669 -1.52744 -2.60445
C -6.31933 -1.72295 -2.92992
C -5.30051 -1.24975 -2.11551
C -5.66303 -0.563759 -0.95648
C -2.73224 0.502408 -1.04494
C -1.34519 0.497844 -1.03602
C 1.56156 1.19605 -0.003477
C 0.847059 2.43794 0.004246
N 0.259661 3.43389 0.035668
C 3.52294 3.42416 -0.948507
C 4.33118 4.55374 -1.03931
C 4.00255 5.64048 -2.02644
H 6.77362 5.99989 -1.26874
H 5.79102 6.78767 -0.040758
H 7.17198 5.78972 0.444721
H 6.61154 3.70019 1.32725
H 5.18168 1.69236 1.44737
H 5.16059 -1.42351 1.73625
H 6.62181 -3.40176 1.93861
H 5.88088 -6.66929 0.998405
H 6.89116 -6.03955 -0.296408
H 7.23107 -5.58834 1.38261
H 3.95649 -6.72558 -0.533918
H 3.24386 -5.69891 -1.78782
H 4.97079 -6.09086 -1.82396
H 2.75577 -3.53977 -1.11944
H -0.829712 -0.892482 2.01925
H -3.29354 -0.915057 1.98933
H -4.30112 1.40186 2.45252
H -6.12662 2.2323 3.89479
H -8.49562 1.86493 3.29223
H -9.08784 0.662414 1.2038
H -9.06781 -0.710568 -1.18514
H -8.44064 -1.9096 -3.26536
H -6.06168 -2.25871 -3.8386
H -4.26058 -1.41304 -2.37468
H -3.26883 0.908477 -1.89531
H -0.803512 0.88869 -1.89131
H 2.67128 3.34406 -1.61637
H 4.82125 5.79678 -2.73827
H 3.10224 5.39572 -2.59582
H 3.83354 6.5995 -1.52328
