87

C 6.89237 5.66181 -1.17976
C 5.63434 5.87601 -0.331873
C 6.07094 6.24456 1.09659
C 4.83681 7.04476 -0.935931
C 4.74526 4.62942 -0.285032
C 5.06658 3.44309 -0.949495
C 4.2388 2.32974 -0.8839
C 3.04352 2.36991 -0.16515
C 2.19818 1.156 -0.10199
N 2.85189 -1.4e-05 -1.1e-05
C 2.19815 -1.15601 0.101962
C 3.04347 -2.36994 0.165137
C 4.23872 -2.3298 0.883941
C 5.06648 -3.44316 0.94956
C 4.74517 -4.62948 0.285069
C 5.63424 -5.87607 0.331911
C 6.89218 -5.66195 1.17996
C 4.83666 -7.04488 0.935777
C 6.07099 -6.24449 -1.09654
C 3.55457 -4.64975 -0.452214
C 2.715 -3.54839 -0.512148
C 0.78924 -1.18576 0.16383
C 0.083285 -2.40868 0.403955
N -0.498442 -3.38648 0.612339
C 0.061951 1.8e-05 -2.4e-05
C -1.42533 3.3e-05 -2.5e-05
C -2.12967 -0.320237 1.16176
C -3.51713 -0.324678 1.16206
C -4.21528 5e-05 -1.9e-05
N -5.63245 5.6e-05 -2.2e-05
C -6.44828 0.726467 0.866601
C -6.09406 1.61528 1.88134
C -7.119 2.22851 2.58739
C -8.46625 1.97213 2.29529
C -8.81187 1.09498 1.27871
C -7.79838 0.466632 0.55349
C -7.79838 -0.466617 -0.553458
C -8.81187 -1.09501 -1.27865
C -8.46625 -1.97215 -2.29523
C -7.11899 -2.22848 -2.58737
C -6.09406 -1.61519 -1.88136
C -6.44828 -0.726399 -0.866612
C -3.51713 0.324773 -1.16209
C -2.12967 0.320314 -1.1618
C 0.789269 1.18578 -0.163873
C 0.083344 2.40872 -0.404004
N -0.498347 3.38654 -0.612387
C 2.71503 3.54838 0.512099
C 3.55462 4.64973 0.452188
H 7.49 6.57907 -1.1823
H 6.64853 5.42289 -2.22015
H 7.52125 4.85825 -0.782511
H 6.70794 7.13574 1.07659
H 5.21446 6.46212 1.74179
H 6.64246 5.43074 1.55599
H 4.51703 6.81603 -1.9584
H 3.9442 7.27662 -0.347113
H 5.45823 7.9465 -0.9696
H 5.97754 3.37148 -1.53135
H 4.51609 1.41919 -1.40422
H 4.516 -1.41926 1.40428
H 5.97741 -3.37157 1.53146
H 6.64822 -5.42306 2.22033
H 7.48978 -6.57922 1.18253
H 7.52113 -4.85839 0.78282
H 3.94411 -7.2767 0.346858
H 5.45809 -7.94663 0.969414
H 4.51678 -6.81626 1.95824
H 5.21457 -6.462 -1.74184
H 6.64254 -5.43061 -1.55581
H 6.70801 -7.13566 -1.07656
H 3.27402 -5.54274 -1.00139
H 1.81664 -3.60239 -1.11751
H -1.59261 -0.569486 2.07126
H -4.06063 -0.588391 2.06279
H -5.05576 1.82525 2.11226
H -6.86848 2.92351 3.38319
H -9.2429 2.46821 2.86888
H -9.85468 0.900776 1.04522
H -9.85467 -0.900843 -1.04512
H -9.2429 -2.46826 -2.8688
H -6.86847 -2.92346 -3.38318
H -5.05576 -1.82513 -2.11231
H -4.06063 0.588498 -2.06283
H -1.59261 0.569563 -2.07131
H 1.81664 3.60241 1.11742
H 3.27406 5.54273 1.00133
