99

C -2.95251 8.75833 -2.73199
C -1.92957 8.7163 -1.60435
N -2.16936 7.63492 -0.66077
C -2.993 7.70218 0.453026
C -3.72248 8.78466 0.947183
C -4.46736 8.58595 2.10037
C -4.49543 7.34365 2.75179
C -3.77312 6.26979 2.25453
C -3.0162 6.44477 1.09507
C -2.16954 5.57295 0.31008
C -1.80203 4.23682 0.424755
C -0.94055 3.68498 -0.521566
C -0.524008 2.26673 -0.420657
C -1.45901 1.22029 -0.393088
C -2.85737 1.52415 -0.466665
N -3.98674 1.76743 -0.522814
C -1.01986 -0.111965 -0.266122
C -1.94569 -1.271 -0.212211
C -3.00746 -1.41616 -1.10722
C -3.83845 -2.52592 -1.0411
C -3.61189 -3.51162 -0.082685
N -4.46018 -4.64391 -0.012836
C -4.7529 -5.5114 -1.0649
C -4.28147 -5.50427 -2.37752
C -4.72121 -6.51049 -3.22562
C -5.60483 -7.50632 -2.78572
C -6.06115 -7.5144 -1.47653
C -5.63233 -6.51276 -0.604316
C -5.88847 -6.23354 0.793131
C -6.67673 -6.8505 1.76571
C -6.72014 -6.30649 3.04024
C -5.98827 -5.15032 3.34617
C -5.19698 -4.51987 2.3967
C -5.14822 -5.07875 1.11973
C -2.54271 -3.38303 0.804515
C -1.71732 -2.2722 0.73594
N 0.275552 -0.407445 -0.176573
C 1.19748 0.553567 -0.225368
C 2.60521 0.097393 -0.137679
C 3.61431 0.646296 -0.93278
C 4.91479 0.170016 -0.850597
C 5.23003 -0.849295 0.046331
N 6.56105 -1.32097 0.145658
C 7.68884 -0.535463 0.385763
C 7.78238 0.839112 0.602602
C 9.04184 1.36913 0.843432
C 10.1852 0.558207 0.873692
C 10.084 -0.809415 0.669658
C 8.82745 -1.36596 0.426603
C 8.36659 -2.71908 0.196077
C 9.01602 -3.9512 0.107838
C 8.26662 -5.08919 -0.148587
C 6.8781 -5.00302 -0.32268
C 6.21019 -3.78973 -0.238671
C 6.96799 -2.65044 0.031351
C 4.22812 -1.40539 0.842786
C 2.92558 -0.94629 0.735778
C 0.830322 1.90964 -0.328928
C 1.81704 2.94382 -0.224427
N 2.60925 3.77919 -0.112591
C -0.458158 4.47751 -1.58285
C -0.822804 5.80405 -1.72273
C -1.67714 6.35267 -0.763181
H -2.93568 7.83017 -3.31147
H -2.72847 9.58872 -3.40902
H -3.96396 8.90049 -2.33928
H -0.919959 8.59218 -2.00368
H -1.93427 9.65408 -1.04343
H -3.71354 9.74835 0.449227
H -5.04376 9.41237 2.50543
H -5.09024 7.22454 3.65194
H -3.79597 5.30679 2.75637
H -2.16791 3.63765 1.25278
H -3.18712 -0.672137 -1.87498
H -4.66769 -2.625 -1.7328
H -3.59351 -4.7429 -2.72746
H -4.36944 -6.52509 -4.2528
H -5.93007 -8.27781 -3.47659
H -6.73896 -8.28942 -1.13067
H -7.24964 -7.74087 1.52336
H -7.32778 -6.77511 3.808
H -6.04118 -4.73499 4.34806
H -4.6406 -3.62264 2.64356
H -2.35385 -4.15897 1.53827
H -0.883305 -2.17833 1.42278
H 3.38598 1.42244 -1.65445
H 5.68472 0.578318 -1.49589
H 6.90479 1.47548 0.587677
H 9.14033 2.43703 1.01373
H 11.1555 1.00664 1.06272
H 10.9668 -1.44139 0.701568
H 10.0929 -4.01375 0.23454
H 8.7569 -6.05504 -0.219488
H 6.3094 -5.90437 -0.530648
H 5.13696 -3.7345 -0.382094
H 4.47354 -2.18911 1.551
H 2.14856 -1.38372 1.35256
H 0.198253 4.03019 -2.32252
H -0.455014 6.39023 -2.55756
