96

C 1.89708 8.90392 -1.70768
N 2.22969 7.80551 -0.825843
C 3.18032 7.84884 0.181856
C 3.97688 8.91716 0.595089
C 4.85286 8.69555 1.64777
C 4.9436 7.44473 2.2765
C 4.15357 6.38466 1.85805
C 3.2646 6.58277 0.8008
C 2.31976 5.73148 0.110847
C 1.95151 4.39881 0.251736
C 0.97619 3.86793 -0.591723
C 0.559159 2.45502 -0.452212
C -0.788641 2.10233 -0.277202
C -1.76546 3.13185 -0.082293
N -2.55114 3.9597 0.106352
C -1.15728 0.744207 -0.20922
C -2.56398 0.286497 -0.117658
C -3.58139 0.860783 -0.883487
C -4.88399 0.391672 -0.790977
C -5.18511 -0.668165 0.062742
N -6.51375 -1.1484 0.15949
C -7.31124 -1.56697 -0.905615
C -7.00608 -1.64714 -2.26415
C -7.98864 -2.12725 -3.11813
C -9.24545 -2.52455 -2.64025
C -9.53865 -2.4536 -1.28702
C -8.56593 -1.97484 -0.408141
C -8.52702 -1.7892 1.02728
C -9.45766 -1.99642 2.04652
C -9.10376 -1.69153 3.35191
C -7.83252 -1.17692 3.64329
C -6.89027 -0.963407 2.64739
C -7.24832 -1.28284 1.3378
C -4.17202 -1.25922 0.81856
C -2.87382 -0.784745 0.725581
N -0.236065 -0.216869 -0.189798
C 1.05878 0.076078 -0.293948
C 1.98337 -1.08035 -0.225748
C 1.60556 -2.28513 -0.82659
C 2.42556 -3.39939 -0.756116
C 3.64324 -3.32661 -0.078259
N 4.48399 -4.46335 -0.003428
C 4.93754 -5.21661 -1.08678
C 4.71892 -5.02935 -2.45151
C 5.31398 -5.92488 -3.3285
C 6.11281 -6.98115 -2.86827
C 6.33674 -7.15455 -1.51106
C 5.74927 -6.26591 -0.609483
C 5.78475 -6.14454 0.832771
C 6.39895 -6.88741 1.84199
C 6.21476 -6.50804 3.16274
C 5.41793 -5.399 3.4801
C 4.79784 -4.64478 2.49427
C 4.9975 -5.02357 1.1668
C 4.02449 -2.13297 0.532134
C 3.197 -1.02137 0.463503
C 1.48968 1.40389 -0.489001
C 2.8564 1.68588 -0.813499
N 3.95409 1.90603 -1.10479
C 0.385284 4.67991 -1.58153
C 0.748594 6.00344 -1.74863
C 1.71366 6.53129 -0.887584
H 2.59078 8.96525 -2.55302
H 0.883293 8.77232 -2.08834
H 1.93087 9.84249 -1.15101
H 3.91929 9.88603 0.110778
H 5.48458 9.51001 1.98958
H 5.64153 7.3075 3.09644
H 4.2261 5.415 2.34198
H 2.40442 3.78539 1.02452
H -3.36307 1.66961 -1.57182
H -5.66995 0.851281 -1.37993
H -6.03598 -1.34885 -2.64526
H -7.77508 -2.19731 -4.18048
H -9.99152 -2.8941 -3.33674
H -10.5081 -2.76934 -0.912759
H -10.4449 -2.38665 1.81672
H -9.8161 -1.84758 4.15597
H -7.57661 -0.937037 4.67093
H -5.91301 -0.558336 2.88444
H -4.40207 -2.09664 1.4681
H -2.08596 -1.24939 1.30772
H 0.656519 -2.34585 -1.34712
H 2.11816 -4.33233 -1.21565
H 4.10905 -4.21251 -2.8204
H 5.15647 -5.80049 -4.39567
H 6.56147 -7.66462 -3.5823
H 6.9627 -7.96625 -1.15189
H 7.00791 -7.75171 1.5933
H 6.68685 -7.07456 3.95926
H 5.27902 -5.12203 4.52082
H 4.17917 -3.79308 2.75328
H 4.97011 -2.07333 1.05927
H 3.5013 -0.111885 0.968885
H -0.356124 4.25039 -2.24743
H 0.29584 6.60235 -2.53075
