103

N 2.39108 3.36445 0.121403
C 1.80332 2.37226 0.032715
C 1.07772 1.14035 -0.063423
C -0.331216 1.13075 -0.09137
C -1.15645 2.36221 -0.1186
C -0.832939 3.45594 -0.924646
C -1.64227 4.58291 -0.94291
C -2.79614 4.62702 -0.16245
N -3.62229 5.7767 -0.178247
C -4.15774 6.38363 -1.31469
C -4.0524 6.00849 -2.65386
C -4.71267 6.7855 -3.59486
C -5.46536 7.90778 -3.22126
C -5.57604 8.2688 -1.88719
C -4.92155 7.50187 -0.922198
C -4.83984 7.57831 0.521308
C -5.36394 8.4623 1.46555
C -5.0743 8.26271 2.80663
C -4.26212 7.19261 3.20783
C -3.73057 6.30027 2.28784
C -4.03521 6.49948 0.941429
C -3.1377 3.53104 0.631031
C -2.32388 2.41006 0.649333
N -1.00986 -0.014719 -0.077225
C -0.375974 -1.18571 -0.086408
C -1.24699 -2.38443 -0.029927
C -2.43954 -2.38676 -0.75982
C -3.29635 -3.47437 -0.712346
C -2.97359 -4.58147 0.073405
N -3.84546 -5.69618 0.121683
C -4.32064 -6.40815 -0.979873
C -4.04742 -6.23041 -2.33597
C -4.64238 -7.10558 -3.23335
C -5.48657 -8.13802 -2.80069
C -5.74517 -8.31662 -1.45032
C -5.15724 -7.44937 -0.528416
C -5.19386 -7.35987 0.916189
C -5.85174 -8.09199 1.90561
C -5.68775 -7.72673 3.23301
C -4.87836 -6.63447 3.57594
C -4.21338 -5.89249 2.61029
C -4.37289 -6.27208 1.27774
C -1.79349 -4.58317 0.814799
C -0.940546 -3.4897 0.767036
C 1.02936 -1.24945 -0.164709
C 1.70291 -2.5086 -0.281664
N 2.24913 -3.52277 -0.385912
C 1.78576 -0.068765 -0.127641
C 3.26953 -0.099273 -0.154066
C 3.93809 -0.64302 -1.26788
C 5.31939 -0.686597 -1.33363
C 6.04045 -0.181069 -0.251637
C 5.38734 0.355682 0.879098
C 3.99743 0.40332 0.921204
C 6.42293 0.754545 1.80786
C 6.40572 1.34621 3.07187
C 7.61074 1.61698 3.70096
C 8.82746 1.30663 3.07581
C 8.86944 0.717706 1.82067
C 7.65365 0.439668 1.19684
N 7.41138 -0.126701 -0.054001
C 8.40211 -0.586041 -0.966104
C 9.3057 -1.57069 -0.57057
C 10.2763 -2.0124 -1.46234
C 10.3357 -1.48873 -2.75032
C 9.42595 -0.511817 -3.14316
C 8.46413 -0.050853 -2.25131
H 0.045903 3.43314 -1.55872
H -1.37462 5.43222 -1.56158
H -3.47869 5.13929 -2.95471
H -4.64393 6.51413 -4.64402
H -5.96758 8.49456 -3.98399
H -6.16582 9.13243 -1.59397
H -5.98528 9.29573 1.15088
H -5.47504 8.94106 3.55332
H -4.04019 7.05707 4.2621
H -3.09853 5.48041 2.6099
H -4.04607 3.55529 1.22288
H -2.59471 1.55668 1.26091
H -2.6958 -1.52409 -1.36458
H -4.22351 -3.46365 -1.27477
H -3.39167 -5.4396 -2.68237
H -4.44583 -6.98626 -4.2946
H -5.93671 -8.80378 -3.53037
H -6.39145 -9.12109 -1.11145
H -6.48526 -8.93208 1.63622
H -6.19196 -8.28652 4.01446
H -4.76832 -6.35896 4.62049
H -3.59542 -5.04613 2.88783
H -1.5404 -5.44183 1.42675
H -0.041042 -3.50168 1.37174
H 3.35832 -1.02331 -2.10273
H 5.81754 -1.10196 -2.20196
H 3.48861 0.809327 1.79008
H 5.46235 1.5916 3.55075
H 7.61581 2.07575 4.68463
H 9.76022 1.53253 3.58375
H 9.81497 0.485128 1.34373
H 9.2409 -1.98903 0.428522
H 10.9809 -2.7773 -1.15097
H 11.0899 -1.84155 -3.44681
H 9.46974 -0.096551 -4.14518
H 7.76508 0.725613 -2.54431
