107

N 2.18881 3.3937 0.532511
C 1.60158 2.41499 0.342806
C 0.891114 1.19099 0.127959
C -0.520138 1.16118 0.061249
C -1.36416 2.37109 0.080167
C -1.01408 3.55034 -0.586261
C -1.85062 4.65296 -0.576717
C -3.06831 4.62484 0.119109
N -3.90729 5.74521 0.145594
C -5.31627 5.60073 0.295582
C -6.00138 6.37704 1.23213
C -7.37966 6.25645 1.36396
C -8.08622 5.35197 0.577125
C -7.4027 4.57376 -0.352729
C -6.02721 4.70187 -0.502748
C -3.37394 7.06081 0.028086
C -3.94545 7.96791 -0.866121
C -3.44406 9.26043 -0.964736
C -2.36057 9.65702 -0.186852
C -1.78681 8.751 0.700535
C -2.29401 7.46263 0.817424
C -3.4246 3.44015 0.78362
C -2.59458 2.33585 0.747692
N -1.17153 1.6e-05 0.00014
C -0.520261 -1.16122 -0.060994
C -1.36441 -2.37104 -0.079919
C -2.59482 -2.33565 -0.747456
C -3.42495 -3.43988 -0.78342
C -3.06879 -4.62461 -0.118935
N -3.90786 -5.74491 -0.145438
C -3.37461 -7.06056 -0.028166
C -3.94618 -7.96777 0.865895
C -3.44489 -9.26035 0.964295
C -2.36144 -9.65689 0.186339
C -1.78761 -8.75077 -0.700899
C -2.29471 -7.46234 -0.817574
C -5.31682 -5.6003 -0.295506
C -6.00197 -6.3765 -1.23212
C -7.38023 -6.25575 -1.36403
C -8.08673 -5.35123 -0.577189
C -7.40318 -4.57313 0.352737
C -6.02771 -4.7014 0.502824
C -1.85112 -4.65286 0.576919
C -1.01446 -3.55033 0.586496
C 0.890988 -1.19117 -0.127761
C 1.60131 -2.41525 -0.342652
N 2.1884 -3.39405 -0.532344
C 1.61606 -0.000129 8.3e-05
C 3.10394 -0.000199 4e-05
C 3.80807 -0.322496 -1.16115
C 5.19566 -0.32732 -1.16142
C 5.89378 -0.000303 -3.3e-05
N 7.31117 -0.000346 -8.2e-05
C 8.1269 0.727748 -0.865172
C 7.77249 1.61827 -1.87836
C 8.79731 2.23301 -2.58325
C 10.1446 1.97635 -2.2916
C 10.4904 1.09733 -1.27669
C 9.47707 0.467436 -0.552609
C 9.47709 -0.467947 0.552536
C 10.4905 -1.09776 1.27665
C 10.1447 -1.9768 2.29155
C 8.79739 -2.23356 2.58316
C 7.77255 -1.61891 1.87823
C 8.12692 -0.72836 0.865052
C 5.19574 0.326764 1.16139
C 3.80816 0.322046 1.16119
H -0.098364 3.60383 -1.16436
H -1.56444 5.54026 -1.12888
H -5.45068 7.0741 1.85537
H -7.90093 6.86661 2.0955
H -9.16186 5.25498 0.686564
H -7.94397 3.87034 -0.978343
H -5.49971 4.10577 -1.24026
H -4.78271 7.65687 -1.48242
H -3.89798 9.95689 -1.66333
H -1.96696 10.6652 -0.270163
H -0.946065 9.051 1.31883
H -1.85494 6.7641 1.52226
H -4.35454 3.39023 1.33754
H -2.88843 1.43086 1.26809
H -2.88857 -1.43062 -1.26783
H -4.35488 -3.38985 -1.33734
H -4.78341 -7.65676 1.48225
H -3.89886 -9.95689 1.66278
H -1.96791 -10.6652 0.269481
H -0.946889 -9.05073 -1.31925
H -1.85558 -6.76373 -1.5223
H -5.45131 -7.07359 -1.85537
H -7.90152 -6.86582 -2.09562
H -9.16236 -5.25413 -0.686682
H -7.94441 -3.86968 0.978351
H -5.50019 -4.10539 1.24039
H -1.56504 -5.54021 1.12908
H -0.098759 -3.60392 1.16461
H 3.2706 -0.574191 -2.06975
H 5.73932 -0.592922 -2.06154
H 6.73411 1.82833 -2.10888
H 8.54669 2.92942 -3.37779
H 10.9212 2.47367 -2.86425
H 11.5333 0.902841 -1.04362
H 11.5333 -0.903198 1.04361
H 10.9213 -2.47406 2.86423
H 8.54679 -2.92998 3.37769
H 6.73418 -1.82904 2.10872
H 5.73948 0.592328 2.06148
H 3.27075 0.573787 2.06983
