101

C -0.127912 9.80803 -1.0001
C -1.33396 9.08024 -1.57927
N -1.78699 7.97884 -0.74311
C -2.68156 8.08188 0.312081
C -3.37942 9.19993 0.770864
C -4.23248 9.02714 1.85098
C -4.39235 7.77745 2.46823
C -3.69381 6.67035 2.01141
C -2.82925 6.81911 0.926051
C -1.96492 5.91276 0.201672
C -1.6808 4.55774 0.322857
C -0.761829 3.97337 -0.548356
C -0.435516 2.53549 -0.429184
C -1.43568 1.54988 -0.444566
C -2.79001 1.92312 -0.727922
N -3.87923 2.21394 -0.98689
C -1.09083 0.195848 -0.266067
C -2.09405 -0.892666 -0.171263
C -3.26367 -0.752981 0.580654
C -4.16727 -1.80288 0.67266
C -3.91488 -3.00219 0.009416
N -4.83135 -4.10389 0.074236
C -5.9693 -4.08545 -0.76826
C -6.41005 -2.91384 -1.3907
C -7.52324 -2.92675 -2.22361
C -8.23805 -4.09872 -2.43393
C -7.81632 -5.26821 -1.81256
C -6.68155 -5.26914 -1.00899
S -6.06265 -6.80681 -0.375385
C -5.38785 -6.2187 1.15673
C -5.38181 -7.05525 2.26737
C -4.73306 -6.67084 3.43492
C -4.10952 -5.43084 3.48401
C -4.14584 -4.57412 2.38952
C -4.78701 -4.95267 1.20635
C -2.7465 -3.15042 -0.732647
C -1.83758 -2.10597 -0.814948
N 0.182476 -0.187244 -0.20265
C 1.1657 0.709595 -0.244947
C 2.54101 0.155592 -0.200918
C 3.56588 0.662867 -1.00219
C 4.83291 0.095265 -0.960971
C 5.09161 -0.978471 -0.116155
N 6.41493 -1.53202 -0.094221
C 6.6672 -2.71266 -0.833967
C 5.63311 -3.5315 -1.29737
C 5.90971 -4.68024 -2.0302
C 7.2207 -5.05432 -2.29467
C 8.25818 -4.25329 -1.83239
C 7.98653 -3.08295 -1.13232
S 9.31856 -1.98768 -0.713481
C 8.67409 -1.34468 0.809519
C 9.55186 -0.979768 1.82425
C 9.08127 -0.345868 2.96813
C 7.71986 -0.101601 3.0932
C 6.8331 -0.498967 2.0988
C 7.29489 -1.12777 0.938782
C 4.07112 -1.49399 0.683037
C 2.80289 -0.936482 0.632246
C 0.889503 2.08979 -0.294315
C 1.94019 3.04877 -0.121251
N 2.786 3.81897 0.050217
C -0.140625 4.75524 -1.54411
C -0.421028 6.10103 -1.69111
C -1.33867 6.679 -0.810237
H -0.359403 10.2313 -0.017924
H 0.169001 10.6262 -1.66383
H 0.723812 9.1297 -0.890676
H -2.17423 9.76684 -1.70808
H -1.1021 8.67468 -2.56706
H -3.2607 10.1724 0.305206
H -4.78731 9.88142 2.22731
H -5.06832 7.67977 3.3119
H -3.81554 5.70252 2.48917
H -2.1515 3.96748 1.1031
H -3.46383 0.164753 1.1224
H -5.06931 -1.69475 1.26599
H -5.87836 -1.98421 -1.23326
H -7.83435 -2.00257 -2.7007
H -9.11329 -4.10804 -3.07517
H -8.35699 -6.19716 -1.96733
H -5.87123 -8.02256 2.20489
H -4.71544 -7.33581 4.29212
H -3.59509 -5.11205 4.38526
H -3.66394 -3.60728 2.45833
H -2.55659 -4.08872 -1.24332
H -0.924909 -2.22318 -1.38838
H 3.37686 1.48364 -1.68501
H 5.62793 0.479662 -1.59118
H 4.60251 -3.27025 -1.09435
H 5.0843 -5.28999 -2.38437
H 7.43857 -5.9567 -2.85642
H 9.2905 -4.52398 -2.03304
H 10.6129 -1.1763 1.70328
H 9.77326 -0.046218 3.74826
H 7.3314 0.393711 3.97765
H 5.77515 -0.30912 2.22704
H 4.2743 -2.33212 1.34171
H 2.00662 -1.34086 1.24702
H 0.559629 4.28607 -2.22752
H 0.061506 6.68147 -2.46958
