108

N 3.61176 1.71106 0.220427
C 2.62928 1.12931 0.035468
C 1.40715 0.406086 -0.155905
C 0.168711 1.07649 -0.137585
C 0.04507 2.5543 -0.097372
C 0.855051 3.38225 -0.878702
C 0.691859 4.76043 -0.83903
C -0.278188 5.32349 -0.014572
N -0.44209 6.74142 0.034906
C -1.28587 7.38933 -0.880478
C -2.015 6.70426 -1.85002
C -2.84511 7.38975 -2.73616
C -2.95665 8.76971 -2.66879
C -2.23104 9.46617 -1.70334
C -1.41233 8.78458 -0.823344
O -0.74061 9.53703 0.112594
C 0.153433 8.9026 0.944337
C 0.878169 9.70053 1.80879
C 1.79174 9.12769 2.69246
C 1.96522 7.75248 2.69133
C 1.23563 6.9494 1.81555
C 0.318733 7.51037 0.929215
C -1.0956 4.50435 0.760513
C -0.940284 3.12719 0.711982
N -0.979125 0.401802 -0.122363
C -0.986669 -0.92814 -0.178205
C -2.32525 -1.56545 -0.123554
C -3.38361 -0.971993 -0.81749
C -4.65144 -1.53237 -0.776717
C -4.87893 -2.68182 -0.023692
N -6.18642 -3.25474 0.0203
C -7.10124 -2.8565 1.00724
C -6.79901 -1.9004 1.97443
C -7.74199 -1.53148 2.93303
C -8.99931 -2.11498 2.94189
C -9.31203 -3.07552 1.98103
C -8.37753 -3.43657 1.02943
O -8.76285 -4.3796 0.104522
C -7.82895 -4.82992 -0.80021
C -8.22298 -5.84247 -1.65387
C -7.33707 -6.33873 -2.60915
C -6.05958 -5.80689 -2.69009
C -5.66278 -4.78775 -1.82515
C -6.53946 -4.28335 -0.866991
C -3.83566 -3.26621 0.688984
C -2.56308 -2.7134 0.636436
C 0.210042 -1.65845 -0.313512
C 0.175294 -3.06759 -0.571913
N 0.139711 -4.19919 -0.808882
C 1.44559 -0.992586 -0.275095
C 2.72572 -1.73138 -0.353098
C 3.67735 -1.38999 -1.33575
C 4.88164 -2.06131 -1.44398
C 5.13805 -3.09053 -0.536362
C 4.20038 -3.44389 0.460754
C 2.99005 -2.76575 0.544411
C 4.79028 -4.53181 1.21128
C 4.36393 -5.29591 2.29826
C 5.19675 -6.29122 2.78589
C 6.44841 -6.52527 2.1978
C 6.8949 -5.77832 1.11736
C 6.05106 -4.78129 0.626596
N 6.24569 -3.90282 -0.431893
C 7.39637 -3.85424 -1.31488
C 8.36631 -2.72716 -1.01903
C 8.68135 -2.36339 0.290598
C 9.60244 -1.35173 0.539319
C 10.2233 -0.692995 -0.518433
C 9.91407 -1.05025 -1.82654
C 8.98769 -2.05908 -2.07333
H 1.59859 2.95666 -1.54328
H 1.31303 5.40438 -1.45296
H -1.93588 5.62551 -1.91331
H -3.40177 6.82823 -3.47971
H -3.59964 9.31027 -3.35545
H -2.29273 10.5463 -1.61827
H 0.713463 10.7728 1.78053
H 2.35617 9.75927 3.37044
H 2.67102 7.28618 3.37134
H 1.38092 5.8757 1.8239
H -1.85071 4.95249 1.39806
H -1.57869 2.48618 1.30949
H -3.20391 -0.07365 -1.3974
H -5.47168 -1.08225 -1.32631
H -5.8193 -1.43773 1.97854
H -7.47791 -0.781872 3.67216
H -9.73826 -1.8335 3.68471
H -10.2853 -3.55476 1.95489
H -9.23178 -6.23154 -1.56059
H -7.65294 -7.13242 -3.27802
H -5.35442 -6.17828 -3.42685
H -4.66125 -4.38094 -1.89849
H -4.02546 -4.15103 1.28772
H -1.76501 -3.16606 1.21416
H 3.45326 -0.594783 -2.03918
H 5.59984 -1.78856 -2.20906
H 2.26889 -3.02494 1.31316
H 3.3952 -5.11147 2.75347
H 4.88108 -6.89437 3.6313
H 7.08675 -7.30743 2.59768
H 7.86856 -5.96648 0.677665
H 7.90539 -4.81864 -1.23924
H 7.03817 -3.77184 -2.34502
H 8.20247 -2.8717 1.12235
H 9.83647 -1.07735 1.56376
H 10.9417 0.097488 -0.323136
H 10.388 -0.53814 -2.65875
H 8.7423 -2.32996 -3.09705
