101

C -3.43092 8.70667 -2.63488
C -2.49493 8.68995 -1.43355
N -2.73039 7.56085 -0.546587
C -3.63927 7.53402 0.500884
C -4.4793 8.54701 0.965495
C -5.29338 8.25972 2.05133
C -5.28186 6.99784 2.66444
C -4.44885 5.99322 2.19626
C -3.62038 6.258 1.10481
C -2.65438 5.4742 0.365845
C -2.19748 4.16605 0.475023
C -1.22395 3.70792 -0.412132
C -0.710822 2.32437 -0.305336
C -1.57129 1.21466 -0.316096
C -2.96659 1.40786 -0.579149
N -4.08785 1.55667 -0.821249
C -1.04715 -0.083003 -0.156146
C -1.89315 -1.29913 -0.073529
C -3.07245 -1.32877 0.674708
C -3.82226 -2.49493 0.753935
C -3.40386 -3.63923 0.081901
C -2.22478 -3.6203 -0.660216
C -1.46987 -2.45942 -0.729118
N 0.266521 -0.292677 -0.10472
C 1.12107 0.727249 -0.147762
C 2.55857 0.360284 -0.117363
C 3.50078 1.00377 -0.92415
C 4.83213 0.611113 -0.894969
C 5.2349 -0.424283 -0.05622
N 6.60492 -0.826374 -0.01936
C 7.50792 -0.18415 0.842038
C 7.12872 0.84364 1.70266
C 8.05957 1.44769 2.54693
C 9.38332 1.03647 2.54104
C 9.77494 0.010337 1.68233
C 8.84982 -0.590388 0.850156
O 9.30431 -1.61009 0.045553
C 8.43795 -2.15226 -0.875921
C 8.9568 -3.09154 -1.74649
C 8.13415 -3.69898 -2.69414
C 6.79465 -3.34758 -2.75438
C 6.27431 -2.39573 -1.87841
C 7.08602 -1.78391 -0.925712
C 4.30051 -1.07627 0.744704
C 2.96863 -0.691699 0.706889
C 0.663122 2.05844 -0.188027
C 1.57868 3.14829 -0.022909
N 2.31593 4.02429 0.141605
C -0.724188 4.5665 -1.41296
C -1.17628 5.86599 -1.54811
C -2.1396 6.32142 -0.64438
H -3.30774 7.80349 -3.2404
H -3.21346 9.57427 -3.26581
H -4.47623 8.76807 -2.31714
H -1.45203 8.64797 -1.75678
H -2.60675 9.60334 -0.84425
H -4.50119 9.52469 0.496046
H -5.95647 9.03054 2.43266
H -5.93347 6.80835 3.51163
H -4.44076 5.01517 2.66856
H -2.57913 3.51703 1.25711
H -3.39966 -0.452871 1.22366
H -4.73253 -2.52322 1.34373
H -1.9046 -4.51755 -1.17988
H -0.548675 -2.44274 -1.30055
H 3.19817 1.79488 -1.60096
H 5.56291 1.1023 -1.52913
H 6.09702 1.17428 1.71586
H 7.73365 2.24454 3.20784
H 10.1136 1.5021 3.19447
H 10.8015 -0.339989 1.64979
H 10.01 -3.3412 -1.66791
H 8.54663 -4.43802 -3.37297
H 6.13694 -3.80868 -3.48433
H 5.22583 -2.12854 -1.93552
H 4.62347 -1.88409 1.39326
H 2.23761 -1.20147 1.32432
H 0.015944 4.1917 -2.1126
H -0.79168 6.50181 -2.33776
N -4.18195 -4.83441 0.158576
C -3.91652 -5.79092 1.15052
C -2.91527 -5.62914 2.10573
C -2.68954 -6.60461 3.07619
H -1.90274 -6.4496 3.80756
C -3.45983 -7.75659 3.1059
H -3.29038 -8.52038 3.85757
C -4.4642 -7.92994 2.15465
H -5.08848 -8.81757 2.14556
H -2.30681 -4.73272 2.09334
C -4.6879 -6.96101 1.19528
O -5.70282 -7.19764 0.29687
C -5.92296 -6.27721 -0.702022
C -6.91734 -6.57181 -1.61503
H -7.46181 -7.50356 -1.50073
C -7.2042 -5.68367 -2.6507
C -6.48058 -4.50593 -2.75371
C -5.47611 -4.21148 -1.83252
H -4.91789 -3.28729 -1.92367
H -6.68767 -3.80058 -3.55219
H -7.98737 -5.91984 -3.3634
C -5.18145 -5.09066 -0.792643
