123

C 9.42481 1.78167 -5.03297
O 9.52255 2.11904 -3.65845
C 8.76619 1.42094 -2.77567
C 7.89473 0.388807 -3.12355
C 7.17244 -0.268397 -2.13135
C 7.28603 0.10317 -0.795001
N 6.55221 -0.578902 0.222006
C 7.29598 -1.14636 1.30021
C 7.01497 -0.808336 2.6207
C 7.74761 -1.35144 3.67244
C 8.79732 -2.22966 3.40316
O 9.57917 -2.80567 4.34961
C 9.31408 -2.49863 5.70909
C 9.09373 -2.56061 2.07713
C 8.34585 -2.03171 1.04007
C 5.1643 -0.685286 0.163495
C 4.48017 -1.68635 0.87308
C 3.10167 -1.7921 0.803698
C 2.34205 -0.907134 0.031483
C 0.867591 -0.961108 -0.042694
N 0.244715 0.218227 -0.035934
C -1.08621 0.300517 -0.082043
C -1.64821 1.66282 -0.036679
C -0.962365 2.71169 -0.662407
C -1.44135 4.00679 -0.633912
C -2.62731 4.32003 0.055489
N -3.11233 5.6237 0.095178
C -4.48248 5.89515 0.391025
C -4.82069 6.75975 1.42644
C -6.15097 7.066 1.70186
C -7.16511 6.4852 0.941316
O -8.48956 6.70822 1.12714
C -8.87619 7.58752 2.17103
C -6.83075 5.60906 -0.096884
C -5.50555 5.3266 -0.374843
C -2.25742 6.73884 -0.158484
C -2.58094 7.66275 -1.14621
C -1.77743 8.77563 -1.38086
C -0.618684 8.96184 -0.627649
O 0.237513 10.0025 -0.776892
C -0.058543 10.9723 -1.7691
C -0.285334 8.03199 0.363132
C -1.10067 6.94031 0.601431
C -3.30201 3.27416 0.708444
C -2.82377 1.97713 0.65464
C -1.87774 -0.866017 -0.184362
C -3.29101 -0.781671 -0.397304
N -4.42904 -0.719463 -0.598084
C -1.2664 -2.12765 -0.202875
C -2.07154 -3.36774 -0.330108
C -1.87401 -4.22816 -1.4277
C -2.60913 -5.39018 -1.58057
C -3.55173 -5.69981 -0.599824
C -3.76994 -4.84667 0.503563
C -3.02984 -3.67558 0.632492
C -4.81496 -5.45439 1.29943
C -5.445 -5.09944 2.49321
C -6.42479 -5.93421 3.0075
C -6.77485 -7.11816 2.34186
C -6.16344 -7.49108 1.15395
C -5.1842 -6.64313 0.637727
N -4.41162 -6.78373 -0.514536
C -4.48976 -7.85883 -1.44292
C -5.69629 -8.13639 -2.08305
C -5.77073 -9.19314 -2.98322
C -4.64268 -9.95963 -3.25994
C -3.43823 -9.6732 -2.62463
C -3.35986 -8.63025 -1.70872
C 0.133346 -2.16574 -0.12326
C 0.796456 -3.43357 -0.167776
N 1.32432 -4.46248 -0.21117
C 3.02378 0.105503 -0.654511
C 4.40013 0.213121 -0.603194
C 8.158 1.1417 -0.456142
C 8.89567 1.78776 -1.43234
H 10.1025 2.45625 -5.55783
H 8.40676 1.92817 -5.4111
H 9.73406 0.746409 -5.21571
H 7.77989 0.077321 -4.15448
H 6.5069 -1.0806 -2.40647
H 6.20885 -0.11395 2.83582
H 7.50011 -1.07146 4.68898
H 9.43622 -1.42837 5.91061
H 8.30469 -2.80965 6.00141
H 10.0454 -3.0592 6.2929
H 9.9118 -3.24577 1.87976
H 8.57705 -2.30149 0.014407
H 5.03235 -2.38895 1.48513
H 2.618 -2.56825 1.3858
H -0.046175 2.49769 -1.20203
H -0.898951 4.78538 -1.15651
H -4.03514 7.20864 2.02624
H -6.37995 7.74684 2.5125
H -8.55225 7.21591 3.14972
H -8.47635 8.59591 2.01567
H -9.96602 7.62591 2.14498
H -7.6284 5.16927 -0.686692
H -5.25584 4.65762 -1.19228
H -3.47758 7.51743 -1.74061
H -2.06086 9.47801 -2.15506
H -0.078774 10.5288 -2.77099
H -1.01581 11.4684 -1.57274
H 0.744157 11.7093 -1.71931
H 0.614289 8.19233 0.948389
H -0.841522 6.23243 1.38237
H -4.19924 3.48362 1.27811
H -3.35951 1.21 1.20257
H -1.14125 -3.96577 -2.18376
H -2.45303 -6.03304 -2.4391
H -3.18862 -3.01701 1.48091
H -5.16787 -4.18536 3.01014
H -6.92556 -5.67295 3.93441
H -7.54129 -7.76063 2.76477
H -6.43839 -8.40976 0.648
H -6.56694 -7.5219 -1.87861
H -6.71236 -9.40927 -3.47831
H -4.70235 -10.7794 -3.9691
H -2.55564 -10.2699 -2.8331
H -2.42891 -8.41478 -1.1945
H 2.4591 0.820469 -1.24328
H 4.89142 1.00683 -1.15284
H 8.258 1.43961 0.582852
H 9.57542 2.5931 -1.17366
