68

N 1.00863 -3.51393 -0.707759
C 1.44477 -2.45128 -0.569289
C 1.98016 -1.13497 -0.391464
C 3.36931 -0.931684 -0.247285
C 4.3637 -2.02714 -0.294644
C 4.30164 -3.06102 -1.23277
C 5.27392 -4.04974 -1.26911
C 6.32538 -4.0236 -0.354266
O 7.29646 -4.96646 -0.335104
C 6.40726 -2.99236 0.583697
C 5.44184 -2.00267 0.599979
N 3.86636 0.289585 -0.049269
C 3.06938 1.35761 -0.004559
C 3.74416 2.65803 0.195668
C 3.35679 3.81446 -0.487358
C 4.0317 5.01161 -0.301113
C 5.10707 5.07134 0.584348
O 5.79624 6.21296 0.81494
C 5.51336 3.92268 1.26676
C 4.84325 2.73092 1.06165
C 1.66996 1.22297 -0.124857
C 0.806352 2.34764 0.077326
N 0.105089 3.24823 0.266736
C 1.10104 -0.043362 -0.32564
C -0.367735 -0.217353 -0.435992
C -1.07663 0.461694 -1.44693
C -2.44607 0.328626 -1.59001
C -3.12103 -0.498184 -0.68954
C -2.42786 -1.17842 0.339115
C -1.04927 -1.04066 0.457953
C -3.42097 -1.92287 1.08347
C -3.3658 -2.77412 2.18781
C -4.54177 -3.34139 2.65524
C -5.76692 -3.0661 2.0298
C -5.84721 -2.22253 0.931262
C -4.6607 -1.65641 0.465323
N -4.46551 -0.79734 -0.606346
C -5.51403 -0.330854 -1.49366
C -6.37282 0.778721 -0.918846
C -5.82074 1.79946 -0.144642
C -6.62145 2.8273 0.341655
C -7.98404 2.84938 0.057179
C -8.54123 1.83489 -0.714183
C -7.73918 0.804427 -1.1953
H 3.50762 -3.0888 -1.97024
H 5.22113 -4.83869 -2.01457
H 7.12381 -5.6215 -1.03274
H 7.23226 -2.98032 1.28816
H 5.5121 -1.19875 1.32465
H 2.53917 3.78498 -1.199
H 3.72984 5.8997 -0.84984
H 5.4159 6.93271 0.282996
H 6.35384 3.98152 1.95021
H 5.16365 1.83876 1.58845
H -0.533739 1.09412 -2.14203
H -2.96855 0.857716 -2.37923
H -0.515008 -1.55466 1.25083
H -2.41717 -2.98741 2.67187
H -4.51695 -4.00498 3.51393
H -6.67492 -3.52046 2.41485
H -6.79942 -2.00758 0.458319
H -5.0359 0.003845 -2.41802
H -6.14522 -1.18336 -1.76079
H -4.75879 1.79086 0.082933
H -6.17868 3.61432 0.945052
H -8.60845 3.65183 0.438433
H -9.60431 1.8393 -0.936231
H -8.17934 0.008763 -1.79092
