58

C 6.34827 -1.70483 -1.80044
N 5.50088 -1.0079 -0.857324
C 5.95079 -0.260975 0.218849
C 7.25857 -0.046978 0.65537
C 7.43833 0.743206 1.78142
C 6.35044 1.31396 2.459
C 5.05301 1.10254 2.01731
C 4.84609 0.310709 0.88699
C 3.66986 -0.109492 0.156664
C 2.30826 0.12346 0.317167
C 1.40958 -0.450794 -0.579585
C -0.04833 -0.232368 -0.418103
C -0.606336 1.05492 -0.425927
C 0.253741 2.18606 -0.605425
N 0.951159 3.09837 -0.746649
C -1.99259 1.2228 -0.221295
C -2.66173 2.5429 -0.19874
C -2.36804 3.55389 -1.11755
C -3.04433 4.7649 -1.08497
C -4.02595 4.98607 -0.120019
O -4.71262 6.14936 -0.03258
C -4.33799 3.98247 0.799364
C -3.66902 2.77372 0.747567
N -2.78815 0.171709 -0.022561
C -2.30462 -1.07088 -0.03463
C -3.29458 -2.1489 0.175648
C -3.25138 -3.35426 -0.530771
C -4.21644 -4.33079 -0.334163
C -5.24235 -4.11707 0.585472
O -6.20602 -5.03596 0.826567
C -5.30532 -2.91476 1.29302
C -4.34667 -1.94226 1.07806
C -0.925779 -1.30833 -0.217125
C -0.38362 -2.62681 -0.079063
N 0.061545 -3.68602 0.057249
C 1.88448 -1.24919 -1.63923
C 3.23534 -1.48116 -1.82548
C 4.12816 -0.914449 -0.913298
H 5.78282 -2.50859 -2.27351
H 6.72643 -1.03044 -2.57627
H 7.19454 -2.15 -1.27316
H 8.10653 -0.478603 0.134448
H 8.4458 0.925463 2.14346
H 6.5291 1.92796 3.33614
H 4.21075 1.54695 2.53965
H 1.94988 0.731041 1.14248
H -1.6278 3.3956 -1.89345
H -2.81561 5.5365 -1.81551
H -4.4029 6.75953 -0.723524
H -5.10636 4.165 1.54314
H -3.91848 1.99307 1.4579
H -2.47806 -3.53183 -1.26952
H -4.17922 -5.25694 -0.901551
H -6.04828 -5.82155 0.27551
H -6.11 -2.75963 2.00386
H -4.40085 -1.00726 1.62465
H 1.17396 -1.67722 -2.33926
H 3.57971 -2.08319 -2.65894
