65

N -0.536989 3.44662 0.37493
C -1.11078 2.45156 0.237367
C -1.80685 1.2104 0.0765
C -3.21775 1.15729 0.084366
C -4.07953 2.35243 0.216004
C -3.81247 3.55139 -0.450744
C -4.66618 4.63821 -0.331915
C -5.80427 4.54268 0.467654
O -6.66936 5.57091 0.628114
C -6.09014 3.34897 1.13368
C -5.2405 2.26724 0.996231
N -3.85816 -0.007095 -0.021755
C -3.19203 -1.15317 -0.163233
C -4.02136 -2.36946 -0.294858
C -3.70065 -3.40261 -1.18004
C -4.51921 -4.51541 -1.30304
C -5.67551 -4.61513 -0.529969
O -6.50779 -5.67995 -0.598347
C -6.0154 -3.58677 0.351825
C -5.20055 -2.47499 0.454941
C -1.78063 -1.1726 -0.16569
C -1.05766 -2.40885 -0.176304
N -0.465129 -3.40234 -0.160024
C -1.06704 0.027003 -0.046174
C 0.418589 0.033741 -0.024548
C 1.13704 -0.423164 -1.13137
C 2.52398 -0.430974 -1.11495
C 3.21017 0.026691 0.00927
N 4.6268 0.020442 0.027783
C 5.45888 0.612475 -0.92254
C 5.12467 1.35526 -2.05478
C 6.16298 1.85358 -2.82853
C 7.50443 1.62762 -2.48893
C 7.83046 0.898424 -1.35571
C 6.80307 0.387368 -0.561161
C 6.78302 -0.382466 0.664853
C 7.78381 -0.911073 1.48149
C 7.4208 -1.63629 2.60593
C 6.06862 -1.84095 2.915
C 5.05617 -1.32469 2.11909
C 5.42765 -0.58592 0.995873
C 2.49883 0.487822 1.11623
C 1.11163 0.486278 1.0999
H -2.94937 3.63978 -1.10061
H -4.45329 5.55952 -0.867657
H -6.35846 6.33735 0.11665
H -6.98013 3.28622 1.75083
H -5.46854 1.33928 1.5091
H -2.82132 -3.33514 -1.81059
H -4.26387 -5.30341 -2.0066
H -6.16118 -6.32012 -1.24316
H -6.91943 -3.67439 0.945039
H -5.46983 -1.6747 1.13539
H 0.609989 -0.777119 -2.01157
H 3.07594 -0.802218 -1.97146
H 4.09125 1.54163 -2.32447
H 5.92742 2.43323 -3.71603
H 8.2919 2.03077 -3.11795
H 8.86875 0.729099 -1.08556
H 8.83049 -0.758569 1.23469
H 8.18737 -2.0531 3.25164
H 5.80391 -2.41812 3.79585
H 4.01418 -1.49518 2.36509
H 3.03157 0.854438 1.98678
H 0.56659 0.83818 1.96973
