81

C 8.5983 -2.46214 -0.862238
C 8.29877 -1.02456 -1.26651
N 7.28916 -0.397521 -0.427566
C 7.53031 0.26676 0.765328
C 8.7462 0.531092 1.39745
C 8.71032 1.23266 2.59356
C 7.49944 1.66345 3.15637
C 6.29369 1.39513 2.52665
C 6.30367 0.689438 1.32265
C 5.27008 0.240674 0.415234
C 3.8838 0.351111 0.411807
C 3.15873 -0.22239 -0.630764
C 1.67894 -0.132932 -0.651047
C 1.0144 1.10303 -0.646001
C 1.78744 2.30871 -0.625031
N 2.41482 3.28049 -0.603549
C -0.395546 1.14461 -0.626578
C -1.17681 2.4027 -0.605024
C -0.844453 3.51157 -1.39069
C -1.62605 4.65461 -1.36841
C -2.75196 4.71124 -0.549613
O -3.43645 5.89298 -0.550447
C -4.73625 5.94468 -0.077382
C -5.00294 6.76712 1.00833
C -6.31563 6.90352 1.44988
C -7.34523 6.21811 0.81301
C -7.061 5.39637 -0.274995
C -5.75473 5.2581 -0.729934
C -3.10204 3.61666 0.239341
C -2.32151 2.47198 0.194674
N -1.11468 0.022212 -0.616983
C -0.524559 -1.17264 -0.645961
C -1.43313 -2.34064 -0.648999
C -1.19583 -3.47243 -1.4376
C -2.08179 -4.53596 -1.43358
C -3.22182 -4.48814 -0.632499
O -4.04939 -5.57097 -0.705951
C -5.06174 -5.73328 0.225721
C -6.37689 -5.62049 -0.202698
C -7.40701 -5.86024 0.701917
C -7.11859 -6.20328 2.01903
C -5.79328 -6.31262 2.43292
C -4.75603 -6.08182 1.53646
C -3.48422 -3.36411 0.148991
C -2.59532 -2.30033 0.126073
C 0.881056 -1.28681 -0.648746
C 1.51271 -2.56661 -0.524489
N 2.02526 -3.59597 -0.397144
C 3.83093 -0.900117 -1.66775
C 5.20963 -1.00816 -1.69083
C 5.92866 -0.432214 -0.640879
H 8.97004 -2.51146 0.165795
H 9.36186 -2.88493 -1.5228
H 7.70106 -3.08454 -0.933845
H 9.20232 -0.412268 -1.21254
H 7.94751 -0.979715 -2.30025
H 9.68818 0.198973 0.974291
H 9.64265 1.45108 3.10579
H 7.50949 2.21017 4.09405
H 5.3555 1.72663 2.96217
H 3.37307 0.859923 1.22348
H 0.010497 3.47957 -2.056
H -1.37968 5.50967 -1.98848
H -4.18654 7.29345 1.49172
H -6.5307 7.54733 2.29717
H -8.36776 6.32535 1.16099
H -7.86136 4.86403 -0.77968
H -5.52291 4.62881 -1.58322
H -3.9724 3.65587 0.883485
H -2.5965 1.61799 0.803901
H -0.32725 -3.51923 -2.08485
H -1.90721 -5.40957 -2.0522
H -6.58179 -5.35292 -1.23402
H -8.43817 -5.77636 0.372906
H -7.92456 -6.38827 2.72215
H -5.56303 -6.58562 3.45815
H -3.71885 -6.17262 1.84286
H -4.37359 -3.31537 0.765621
H -2.80226 -1.42259 0.728376
H 3.25375 -1.33489 -2.47761
H 5.70706 -1.52747 -2.50247
