80

N 1.30363 3.0086 0.177887
C 0.562037 2.1389 -0.00035
C -0.355242 1.05434 -0.188711
C -1.74698 1.27039 -0.129358
C -2.35512 2.61508 -0.005552
C -1.88692 3.71361 -0.733396
C -2.5006 4.94975 -0.61788
C -3.59573 5.12768 0.235333
C -4.22827 6.43488 0.358604
C -3.98125 7.65175 -0.206208
C -4.95717 8.55149 0.319029
C -5.72555 7.82044 1.16338
O -5.29789 6.53481 1.19961
C -4.06937 4.02544 0.957265
C -3.46394 2.78704 0.828502
N -2.60277 0.249317 -0.161865
C -2.16811 -1.00333 -0.293708
C -3.22412 -2.04348 -0.330931
C -3.20509 -3.10145 -1.24502
C -4.23192 -4.03104 -1.26937
C -5.30405 -3.93649 -0.375072
C -6.3753 -4.92439 -0.401751
C -6.60833 -6.03366 -1.1605
C -7.84132 -6.58953 -0.703197
C -8.26879 -5.78167 0.297961
O -7.39194 -4.76687 0.494137
C -5.32639 -2.87264 0.534755
C -4.307 -1.93589 0.54688
C -0.790396 -1.29082 -0.378432
C -0.328869 -2.64222 -0.493568
N 0.044724 -3.73332 -0.583286
C 0.147921 -0.249026 -0.317944
C 1.60641 -0.510601 -0.362066
C 2.39247 0.089417 -1.36597
C 3.7565 -0.127384 -1.44612
C 4.34188 -0.956128 -0.4875
C 3.57176 -1.56067 0.531833
C 2.19998 -1.34046 0.587344
C 4.49179 -2.33543 1.33657
C 4.34217 -3.14107 2.46615
C 5.46199 -3.75689 3.0036
C 6.72517 -3.57245 2.42232
C 6.89931 -2.77603 1.29984
C 5.76887 -2.16172 0.759768
N 5.66174 -1.32734 -0.345246
C 6.73778 -0.925073 -1.23164
C 7.24892 0.483027 -0.997952
C 7.39521 0.999141 0.289967
C 7.90123 2.27992 0.48302
C 8.27059 3.06011 -0.609303
C 8.12726 2.55213 -1.89612
C 7.61577 1.27205 -2.08731
H -1.05625 3.60331 -1.42148
H -2.12816 5.78363 -1.20364
H -3.19677 7.88287 -0.912775
H -5.06803 9.60307 0.095021
H -6.57637 8.05429 1.78604
H -4.91831 4.14098 1.62134
H -3.84527 1.9402 1.38842
H -2.40203 -3.18974 -1.96784
H -4.2022 -4.83546 -1.99701
H -5.97815 -6.41286 -1.95241
H -8.33965 -7.47413 -1.07388
H -9.13555 -5.78919 0.942206
H -6.14938 -2.77916 1.23412
H -4.34133 -1.11257 1.25206
H 1.91438 0.724455 -2.10495
H 4.34504 0.339861 -2.22782
H 1.6033 -1.79524 1.37184
H 3.36327 -3.2808 2.9155
H 5.36372 -4.38612 3.88256
H 7.58975 -4.06141 2.86112
H 7.88324 -2.6374 0.864827
H 7.55017 -1.64583 -1.10651
H 6.39111 -1.0241 -2.26436
H 7.10968 0.397954 1.14824
H 8.00768 2.66989 1.49105
H 8.66446 4.06058 -0.457424
H 8.4061 3.15514 -2.75525
H 7.49772 0.881021 -3.09468
