70

C 7.3377 -2.4084 -1.69782
N 6.52216 -1.66661 -0.760457
C 6.99988 -0.978652 0.343023
C 8.30834 -0.874589 0.816029
C 8.51867 -0.122707 1.9628
C 7.46038 0.516382 2.62603
C 6.16266 0.414879 2.14779
C 5.92547 -0.335812 0.995612
C 4.74046 -0.645921 0.225559
C 3.39854 -0.304785 0.353674
C 2.48279 -0.782929 -0.581744
C 1.04472 -0.441209 -0.466829
C 0.60095 0.890262 -0.452714
C 1.56232 1.94758 -0.553479
N 2.34036 2.80009 -0.630711
C -0.772922 1.17352 -0.311669
C -1.32348 2.5496 -0.275107
C -0.901714 3.55125 -1.15499
C -1.46611 4.81552 -1.10765
C -2.46361 5.11965 -0.174362
C -3.04533 6.45525 -0.123394
C -2.81796 7.60464 -0.82193
C -3.71646 8.58403 -0.300735
C -4.42388 7.9629 0.674674
O -4.02991 6.67174 0.795913
C -2.892 4.11354 0.699986
C -2.33713 2.84654 0.640953
N -1.66853 0.193997 -0.191329
C -1.29283 -1.08413 -0.224616
C -2.38401 -2.07864 -0.103557
C -2.42337 -3.23932 -0.882718
C -3.47528 -4.13248 -0.76572
C -4.51586 -3.89742 0.140352
C -5.61278 -4.84903 0.2657
C -5.89561 -6.03814 -0.340153
C -7.12786 -6.4969 0.215634
C -7.50544 -5.55762 1.11728
O -6.59859 -4.55142 1.16063
C -4.48047 -2.73069 0.913709
C -3.43574 -1.83147 0.783813
C 0.065888 -1.43933 -0.346234
C 0.478108 -2.80699 -0.234575
N 0.815651 -3.90734 -0.118451
C 2.9225 -1.59601 -1.64579
C 4.25441 -1.93553 -1.79903
C 5.16345 -1.46277 -0.85007
H 6.72524 -3.15837 -2.1999
H 7.78426 -1.75024 -2.4509
H 8.13492 -2.92547 -1.15992
H 9.13429 -1.35896 0.306302
H 9.52745 -0.025255 2.35288
H 7.6626 1.0973 3.52043
H 5.34353 0.912769 2.65851
H 3.06764 0.312876 1.18291
H -0.149076 3.34267 -1.9067
H -1.13123 5.57143 -1.81029
H -2.09541 7.74095 -1.61402
H -3.81841 9.61354 -0.613742
H -5.20742 8.28381 1.34499
H -3.66592 4.3266 1.42849
H -2.68375 2.07551 1.32031
H -1.6451 -3.43903 -1.61067
H -3.49015 -5.01874 -1.39141
H -5.29773 -6.53183 -1.09322
H -7.65872 -7.40672 -0.026739
H -8.35259 -5.46015 1.77977
H -5.27792 -2.52777 1.61939
H -3.42441 -0.928939 1.38495
H 2.20165 -1.94774 -2.37698
H 4.57243 -2.54633 -2.63646
