77

N -0.641801 -3.41699 0.554605
C -0.065981 -2.43383 0.355333
C 0.634008 -1.2056 0.125467
C 2.04251 -1.16856 0.058519
C 2.89537 -2.37737 0.109449
C 2.56814 -3.55345 -0.573486
C 3.41058 -4.6518 -0.529611
C 4.60199 -4.6106 0.204039
C 5.47905 -5.77349 0.252817
C 5.41756 -7.0186 -0.301083
C 6.5914 -7.71222 0.121859
C 7.28102 -6.8427 0.900525
O 6.6213 -5.66233 0.990518
C 4.93293 -3.43001 0.880329
C 4.0967 -2.32835 0.823462
N 2.6907 -0.008977 -0.035891
C 2.03141 1.14483 -0.12404
C 2.87307 2.36109 -0.182049
C 4.07109 2.32151 -0.905366
C 4.89597 3.42929 -0.968988
C 4.55917 4.6092 -0.291921
C 5.43429 5.77251 -0.359829
C 6.61916 6.01783 -0.989835
C 6.98108 7.36123 -0.670433
C 5.99392 7.83591 0.12833
O 5.04778 6.88617 0.32691
C 3.3744 4.64076 0.450697
C 2.54146 3.53346 0.501813
C 0.622027 1.16953 -0.177718
C -0.09099 2.39137 -0.401861
N -0.677686 3.36895 -0.596778
C -0.099016 -0.021211 -0.022164
C -1.5862 -0.027543 -0.013868
C -2.2981 0.299669 -1.16905
C -3.68552 0.299415 -1.16132
C -4.37582 -0.03688 0.002168
N -5.79292 -0.040708 0.010511
C -6.61203 -0.761638 -0.857603
C -6.26159 -1.64165 -1.88128
C -7.28915 -2.25119 -2.58671
C -8.63529 -1.99973 -2.28535
C -8.97709 -1.13138 -1.25996
C -7.96091 -0.506819 -0.535233
C -7.95671 0.417674 0.579043
C -8.96744 1.0386 1.31445
C -8.61796 1.90847 2.33596
C -7.26963 2.16502 2.62291
C -6.24739 1.5591 1.90672
C -6.60545 0.677513 0.887057
C -3.66995 -0.369027 1.15749
C -2.28254 -0.359978 1.14934
H 1.66598 -3.6084 -1.17235
H 3.14184 -5.54847 -1.07816
H 4.63051 -7.39971 -0.936198
H 6.87939 -8.72468 -0.123564
H 8.2142 -6.90597 1.44055
H 5.85234 -3.37656 1.45198
H 4.36748 -1.41723 1.34547
H 4.34586 1.41205 -1.42807
H 5.8119 3.37909 -1.54846
H 7.17137 5.32532 -1.60917
H 7.86111 7.89856 -0.994617
H 5.82282 8.78395 0.616419
H 3.10525 5.53627 0.998884
H 1.64368 3.58125 1.10791
H -1.76699 0.558215 -2.07946
H -4.23508 0.568676 -2.05671
H -5.22414 -1.84779 -2.11938
H -7.04161 -2.93934 -3.38937
H -9.41409 -2.49274 -2.85869
H -10.019 -0.941033 -1.01934
H -10.0111 0.844368 1.08494
H -9.39243 2.39873 2.91747
H -7.01612 2.85431 3.42272
H -5.20822 1.76908 2.13373
H -4.20747 -0.641851 2.05911
H -1.73932 -0.614921 2.05361
