80

N 1.61343 2.96754 0.14841
C 0.87055 2.09791 -0.024455
C -0.048796 1.0138 -0.206214
C -1.43976 1.23371 -0.151487
C -2.04435 2.58146 -0.038222
C -1.57334 3.67302 -0.772996
C -2.18748 4.91106 -0.669693
C -3.27848 5.10519 0.186253
C -3.89846 6.43136 0.302425
C -3.32971 7.65297 0.061324
C -4.21956 8.74491 0.270946
C -5.45786 8.34445 0.668339
S -5.56118 6.62722 0.791769
C -3.75054 4.00568 0.91443
C -3.15344 2.76237 0.792827
N -2.29859 0.215116 -0.177504
C -1.86635 -1.03917 -0.298689
C -2.92353 -2.079 -0.326821
C -2.9089 -3.14006 -1.23595
C -3.93655 -4.07008 -1.25124
C -5.00045 -3.9844 -0.345293
C -6.06287 -4.99816 -0.357335
C -5.99305 -6.28773 -0.811251
C -7.21628 -7.00438 -0.675807
C -8.20615 -6.25351 -0.120909
S -7.66412 -4.65741 0.244516
C -5.01427 -2.91338 0.557052
C -4.00148 -1.96902 0.555936
C -0.48972 -1.33115 -0.379391
C -0.032906 -2.68512 -0.484959
N 0.33622 -3.77825 -0.567404
C 0.451588 -0.29173 -0.324821
C 1.90916 -0.558075 -0.364313
C 2.6997 0.033813 -1.36958
C 4.06294 -0.189137 -1.44604
C 4.64302 -1.01577 -0.482354
C 3.86842 -1.61187 0.538579
C 2.49754 -1.38565 0.590391
C 4.78353 -2.38685 1.34869
C 4.62822 -3.18635 2.48186
C 5.74423 -3.80478 3.02418
C 7.00922 -3.629 2.44415
C 7.18896 -2.83883 1.31814
C 6.06233 -2.22182 0.773212
N 5.96087 -1.39232 -0.336052
C 7.0403 -0.999098 -1.22249
C 7.5573 0.407751 -0.994504
C 7.70837 0.927364 0.291477
C 8.21963 2.20681 0.479365
C 8.58951 2.98216 -0.616252
C 8.44146 2.47068 -1.90112
C 7.92473 1.19192 -2.08713
H -0.746531 3.55467 -1.46451
H -1.82691 5.73297 -1.2787
H -2.29486 7.77336 -0.238106
H -3.94153 9.78385 0.13579
H -6.3208 8.95672 0.895871
H -4.58609 4.12203 1.59785
H -3.53649 1.92259 1.36196
H -2.11404 -3.22643 -1.96819
H -3.92111 -4.86289 -1.99124
H -5.08578 -6.72356 -1.2137
H -7.34589 -8.03803 -0.975362
H -9.22676 -6.54139 0.094958
H -5.8177 -2.82023 1.28131
H -4.0333 -1.14485 1.26018
H 2.22577 0.666986 -2.11285
H 4.65485 0.271746 -2.22898
H 1.89756 -1.83408 1.37601
H 3.6479 -3.31939 2.93013
H 5.64154 -4.42929 3.90599
H 7.87079 -4.11985 2.88676
H 8.17432 -2.70694 0.884266
H 7.84917 -1.72293 -1.09249
H 6.69489 -1.10141 -2.25531
H 7.42257 0.329913 1.15228
H 8.3298 2.59954 1.48592
H 8.98749 3.98161 -0.468388
H 8.72072 3.06989 -2.76277
H 7.80308 0.798121 -3.093
