77

N -1.13411 -3.40925 -0.374477
C -0.569887 -2.40079 -0.323755
C 0.12548 -1.1498 -0.25582
C 1.53414 -1.10621 -0.22551
C 2.3886 -2.31662 -0.280051
C 2.1436 -3.36733 -1.16806
C 2.98978 -4.46424 -1.21348
C 4.09566 -4.55767 -0.360005
C 4.9649 -5.74046 -0.405037
C 4.65103 -7.00279 -0.831326
C 5.7377 -7.91892 -0.74187
C 6.86928 -7.3452 -0.249963
S 6.62975 -5.67567 0.111137
C 4.33992 -3.49803 0.522736
C 3.50989 -2.39012 0.551106
N 2.18552 0.052548 -0.135368
C 1.5227 1.20782 -0.095648
C 2.36093 2.42736 -0.025307
C 2.064 3.57837 -0.760716
C 2.89357 4.68679 -0.701998
C 4.03514 4.69001 0.108736
C 4.88676 5.88412 0.17657
C 4.53659 7.18406 -0.070882
C 5.61431 8.10175 0.084882
C 6.77526 7.4915 0.447587
S 6.57473 5.78553 0.604092
C 4.33107 3.53164 0.838399
C 3.5163 2.41474 0.761116
C 0.11372 1.23793 -0.102598
C -0.593925 2.46909 0.089786
N -1.16792 3.4568 0.271387
C -0.613141 0.040967 -0.186421
C -2.09611 0.040513 -0.17691
C -2.79949 0.738829 -1.17813
C -4.18203 0.766559 -1.20887
C -4.87049 0.087204 -0.203332
C -4.18337 -0.606363 0.816704
C -2.79258 -0.635546 0.822015
C -5.1912 -1.1607 1.695
C -5.1361 -1.93946 2.85195
C -6.3222 -2.32269 3.45813
C -7.55737 -1.9385 2.91575
C -7.63696 -1.1647 1.76729
C -6.44006 -0.775576 1.16697
N -6.23507 -0.019646 0.013105
C -7.2538 0.556034 -0.796333
C -8.16592 1.44705 -0.233744
C -9.16525 2.00056 -1.02591
C -9.245 1.68267 -2.37838
C -8.32622 0.799742 -2.93742
C -7.33542 0.226943 -2.14807
H 1.31066 -3.31962 -1.86041
H 2.79957 -5.24971 -1.93681
H 3.66301 -7.279 -1.1812
H 5.67168 -8.96239 -1.02786
H 7.8343 -7.80414 -0.078395
H 5.18093 -3.54152 1.20809
H 3.7194 -1.57798 1.23854
H 1.20213 3.60258 -1.41837
H 2.6626 5.55436 -1.31068
H 3.52922 7.48248 -0.33765
H 5.52163 9.17154 -0.063149
H 7.74135 7.94306 0.632104
H 5.20065 3.50351 1.48789
H 3.76497 1.52582 1.33016
H -2.24431 1.25486 -1.95488
H -4.70611 1.30207 -1.9919
H -2.25894 -1.15957 1.60878
H -4.17846 -2.24084 3.26612
H -6.298 -2.92744 4.35915
H -8.47468 -2.25391 3.40369
H -8.59638 -0.875363 1.35337
H -8.08563 1.7066 0.81677
H -9.87663 2.69182 -0.584868
H -10.0221 2.12249 -2.99574
H -8.38552 0.544724 -3.99093
H -6.62884 -0.478526 -2.57302
