61

C 6.92285 -2.73528 -1.09155
C 6.62125 -1.33334 -1.60479
N 5.71863 -0.593002 -0.736571
C 6.09807 0.169487 0.357795
C 7.3788 0.44679 0.838054
C 7.48422 1.25725 1.95887
C 6.34916 1.78195 2.59512
C 5.07862 1.49979 2.1172
C 4.94664 0.68559 0.991365
C 3.81416 0.191677 0.238629
C 2.43833 0.348082 0.365132
C 1.59472 -0.294982 -0.538655
C 0.124352 -0.163482 -0.409153
C -0.510937 1.08795 -0.429501
C 0.280115 2.27053 -0.598082
N 0.920037 3.22477 -0.732268
C -1.90708 1.17125 -0.252476
C -2.65362 2.45211 -0.237831
C -2.41186 3.47301 -1.16006
C -3.15682 4.6428 -1.13279
C -4.15476 4.8174 -0.173968
S -5.06624 6.34266 -0.181895
C -4.40969 3.79932 0.746412
C -3.67223 2.62721 0.703334
N -2.64485 0.076176 -0.074271
C -2.08618 -1.13363 -0.080824
C -3.01653 -2.27187 0.099829
C -2.89576 -3.45632 -0.631577
C -3.80596 -4.48889 -0.46288
C -4.85269 -4.35909 0.450455
S -5.97803 -5.72162 0.632107
C -4.98655 -3.17647 1.18024
C -4.08232 -2.14325 0.995134
C -0.693436 -1.28965 -0.229354
C -0.081521 -2.57628 -0.07735
N 0.415648 -3.61007 0.071702
C 2.13896 -1.08686 -1.56989
C 3.50469 -1.24308 -1.72209
C 4.3431 -0.598627 -0.8092
H 7.39288 -2.69904 -0.104025
H 7.60669 -3.2453 -1.77737
H 6.00757 -3.33027 -1.0155
H 7.54116 -0.751338 -1.70094
H 6.16864 -1.37497 -2.59843
H 8.26345 0.042878 0.357414
H 8.46955 1.48821 2.35266
H 6.46953 2.41239 3.47051
H 4.199 1.90379 2.60998
H 2.0273 0.945188 1.17326
H -1.65848 3.35383 -1.93018
H -2.95957 5.41704 -1.86782
H -5.85918 6.06417 0.868074
H -5.18521 3.91692 1.49673
H -3.881 1.83799 1.41725
H -2.10575 -3.57287 -1.36494
H -3.69982 -5.39425 -1.05266
H -6.77423 -5.15411 1.55564
H -5.79671 -3.05754 1.89293
H -4.19671 -1.22498 1.56046
H 1.47085 -1.57402 -2.27296
H 3.90175 -1.8519 -2.52682
