58

C 6.71227 -1.46008 -2.01536
N 5.86498 -0.911391 -0.978778
C 6.31279 -0.324093 0.193131
C 7.6201 -0.16209 0.653399
C 7.79665 0.459093 1.8812
C 6.70611 0.914335 2.63741
C 5.40928 0.756853 2.17228
C 5.20571 0.13555 0.93941
C 4.03061 -0.182367 0.157787
C 2.66804 0.017598 0.351794
C 1.7717 -0.422544 -0.619348
C 0.313079 -0.227496 -0.426787
C -0.246413 1.05364 -0.306623
C 0.615704 2.1975 -0.320938
N 1.31386 3.11983 -0.322958
C -1.6419 1.20107 -0.169193
C -2.32817 2.51291 -0.119154
C -1.97829 3.57647 -0.954037
C -2.67015 4.77849 -0.901363
C -3.7242 4.94008 -0.003026
S -4.64394 6.45452 0.126087
C -4.08788 3.87885 0.82939
C -3.40257 2.67801 0.761316
N -2.43396 0.136665 -0.052371
C -1.93825 -1.098 -0.109596
C -2.92215 -2.18924 0.077443
C -4.19286 -2.05805 -0.490524
C -5.15322 -3.04252 -0.323442
C -4.86498 -4.17475 0.440613
S -6.0503 -5.47165 0.703768
C -3.60791 -4.3038 1.03189
C -2.64601 -3.32192 0.847461
C -0.566949 -1.31753 -0.350875
C -0.053358 -2.64437 -0.517704
N 0.362226 -3.71412 -0.662742
C 2.24787 -1.05292 -1.78578
C 3.59994 -1.25018 -2.0036
C 4.49127 -0.819537 -1.01865
H 6.15349 -2.20137 -2.58808
H 7.07219 -0.680914 -2.69589
H 7.57065 -1.95908 -1.56109
H 8.47047 -0.504598 0.073528
H 8.8038 0.597443 2.26305
H 6.88217 1.39682 3.59372
H 4.56468 1.11279 2.75516
H 2.30794 0.497458 1.25662
H -1.18035 3.46965 -1.67999
H -2.38673 5.58521 -1.57016
H -3.973 7.13529 -0.820207
H -4.909 3.98787 1.53145
H -3.69464 1.85536 1.40445
H -4.42537 -1.17601 -1.07702
H -6.12737 -2.92496 -0.787685
H -7.04896 -4.92841 -0.014825
H -3.37564 -5.16858 1.64576
H -1.68637 -3.43408 1.33914
H 1.53917 -1.3752 -2.54193
H 3.94584 -1.72126 -2.91688
