75

C 7.66624 -2.61904 -1.55708
C 7.37404 -1.14442 -1.80178
N 6.47386 -0.572542 -0.812252
C 6.85417 -0.030333 0.405848
C 8.13506 0.147702 0.931148
C 8.24114 0.733241 2.18414
C 7.10677 1.13239 2.90701
C 5.8362 0.950036 2.38296
C 5.70347 0.362857 1.12372
C 4.57053 0.024769 0.29008
C 3.19484 0.163723 0.440883
C 2.35107 -0.292094 -0.569376
C 0.879604 -0.166157 -0.420866
C 0.259769 1.08625 -0.296204
C 1.06984 2.26726 -0.264504
N 1.72612 3.21916 -0.22865
C -1.1444 1.16862 -0.200086
C -1.89003 2.44782 -0.153197
C -1.55906 3.53894 -0.960327
C -2.31172 4.70297 -0.923869
C -3.40009 4.805 -0.058204
N -4.16051 5.99413 -0.009199
C -3.67662 7.26839 -0.223487
C -4.71407 8.15098 -0.089152
C -5.88185 7.39145 0.212267
C -5.51171 6.07457 0.258943
C -3.7387 3.72166 0.754447
C -3.00066 2.55219 0.690266
N -1.89095 0.06831 -0.125225
C -1.33869 -1.14193 -0.188621
C -2.27885 -2.27878 -0.049777
C -3.5393 -2.1894 -0.648597
C -4.46423 -3.21109 -0.517639
C -4.1446 -4.34919 0.224841
N -5.08412 -5.39521 0.361011
C -6.02243 -5.76189 -0.581819
C -6.74201 -6.81528 -0.08582
C -6.23207 -7.10412 1.2133
C -5.21528 -6.22117 1.45841
C -2.89586 -4.44384 0.837732
C -1.97573 -3.41477 0.704516
C 0.047476 -1.29553 -0.392136
C 0.626017 -2.59445 -0.564698
N 1.09409 -3.64166 -0.714093
C 2.89272 -0.878189 -1.73039
C 4.25847 -1.013 -1.90569
C 5.09788 -0.55742 -0.886523
H 8.13604 -2.76937 -0.580252
H 8.34702 -2.99802 -2.32588
H 6.74696 -3.21174 -1.59167
H 8.29749 -0.560254 -1.78783
H 6.92286 -0.998718 -2.78617
H 9.01941 -0.161371 0.384201
H 9.22662 0.882856 2.61513
H 7.22795 1.58632 3.88554
H 4.95699 1.25697 2.94207
H 2.78453 0.604698 1.34416
H -0.735462 3.47606 -1.66211
H -2.06543 5.52185 -1.59001
H -2.62763 7.43447 -0.417559
H -4.6441 9.226 -0.187419
H -6.88284 7.77088 0.368111
H -6.09613 5.18183 0.423508
H -4.56914 3.79907 1.44703
H -3.27278 1.71123 1.31811
H -3.79624 -1.30288 -1.21748
H -5.44227 -3.11525 -0.975331
H -6.06947 -5.2615 -1.53725
H -7.54203 -7.33036 -0.600459
H -6.58073 -7.86904 1.89415
H -4.59552 -6.08158 2.33128
H -2.63603 -5.32567 1.41213
H -1.02236 -3.50172 1.21273
H 2.22433 -1.22027 -2.51408
H 4.6543 -1.46223 -2.80978
