79

N -0.782741 -3.40379 -0.368
C -0.222927 -2.39355 -0.304575
C 0.468754 -1.14159 -0.220847
C 1.87715 -1.09547 -0.183137
C 2.73503 -2.30319 -0.247337
C 2.49914 -3.34161 -1.15078
C 3.34068 -4.44308 -1.20099
C 4.44313 -4.51965 -0.351414
N 5.30342 -5.63932 -0.400589
C 5.59657 -6.38169 -1.52601
C 6.46778 -7.37589 -1.17056
C 6.7154 -7.24471 0.226729
C 5.99212 -6.17054 0.670284
C 4.69762 -3.47965 0.54418
C 3.85181 -2.38442 0.589799
N 2.5256 0.063826 -0.079887
C 1.8602 1.21739 -0.032093
C 2.69611 2.43751 0.049156
C 2.39766 3.5939 -0.675883
C 3.2269 4.70332 -0.615118
C 4.36231 4.68355 0.194036
N 5.20043 5.81773 0.268229
C 4.79134 7.12972 0.143985
C 5.88926 7.93679 0.272191
C 7.01755 7.09018 0.476542
C 6.56487 5.79857 0.47302
C 4.66952 3.53385 0.923967
C 3.8527 2.41956 0.834518
C 0.451148 1.24453 -0.0448
C -0.259733 2.47224 0.157083
N -0.835797 3.45728 0.346702
C -0.272707 0.047056 -0.145506
C -1.75558 0.044012 -0.15032
C -2.44924 0.755314 -1.14929
C -3.83134 0.779967 -1.19599
C -4.5297 0.083681 -0.209034
C -3.85268 -0.62302 0.808763
C -2.46197 -0.648401 0.830285
C -4.86926 -1.19451 1.66572
C -4.82571 -1.9918 2.81047
C -6.01786 -2.39025 3.39459
C -7.24762 -2.00239 2.84258
C -7.31574 -1.20984 1.70625
C -6.1129 -0.805947 1.12799
N -5.8964 -0.031015 -0.0111
C -6.90738 0.550779 -0.825905
C -7.83129 1.42938 -0.263096
C -8.82312 1.98872 -1.06057
C -8.88379 1.68894 -2.41815
C -7.95333 0.818311 -2.97718
C -6.96988 0.239701 -2.1829
H 1.66208 -3.2953 -1.83789
H 3.13056 -5.24775 -1.89624
H 5.18609 -6.11215 -2.48762
H 6.89017 -8.11308 -1.8402
H 7.34711 -7.87521 0.838009
H 5.87673 -5.75655 1.66072
H 5.5677 -3.51758 1.18979
H 4.06057 -1.57596 1.28164
H 1.53573 3.62391 -1.33295
H 3.00239 5.5756 -1.218
H 3.7477 7.3719 0.010854
H 5.88509 9.01787 0.233375
H 8.04722 7.397 0.602612
H 7.09724 4.86358 0.561401
H 5.53808 3.51608 1.5725
H 4.10052 1.52761 1.39902
H -1.88653 1.28356 -1.91231
H -4.34754 1.32561 -1.97724
H -1.93641 -1.18276 1.61551
H -3.87221 -2.29603 3.23204
H -6.00259 -3.00976 4.28573
H -8.16977 -2.32993 3.3131
H -8.27097 -0.91779 1.28462
H -7.76586 1.67489 0.791834
H -9.54369 2.67034 -0.619408
H -9.65507 2.13331 -3.03951
H -7.99771 0.577412 -4.03474
H -6.25429 -0.456456 -2.60814
