90

C 2.66082 -5.87207 2.06798
O 3.83631 -5.61857 1.31209
C 3.91134 -4.45049 0.633147
C 2.93541 -3.4554 0.671924
C 3.11094 -2.29048 -0.075015
C 2.10237 -1.20297 -0.04886
N 2.59047 0.035795 -0.039419
C 1.78527 1.09456 0.016567
C 2.45939 2.41459 -0.019362
C 1.92948 3.48458 -0.748346
C 2.60292 4.69926 -0.780076
O 2.19451 5.77118 -1.50018
C 0.96552 5.67227 -2.20665
C 3.80915 4.86759 -0.07129
O 4.52192 6.02682 -0.162565
C 3.92222 7.18742 0.41862
C 4.32973 3.78971 0.652266
O 5.51436 3.8348 1.31795
C 5.79749 4.95721 2.15191
C 3.66019 2.56718 0.662871
C 0.38783 0.935556 0.122365
C -0.475289 2.06675 0.292571
N -1.17501 2.97666 0.436867
C -0.174829 -0.348173 0.061463
C -1.64424 -0.552678 0.121787
C -2.31575 -1.1439 -0.96596
C -3.68444 -1.34786 -0.948511
C -4.38632 -0.962086 0.194373
C -3.72989 -0.368345 1.29585
C -2.3554 -0.159394 1.25331
C -4.7495 -0.106303 2.28877
C -4.72978 0.456324 3.56572
C -5.91938 0.564656 4.26933
C -7.12416 0.11911 3.70583
C -7.1698 -0.441203 2.43754
C -5.96908 -0.554385 1.7355
N -5.73328 -1.07259 0.468962
C -6.71279 -1.6757 -0.41492
C -7.17793 -0.776487 -1.54358
C -7.44692 -1.3284 -2.79548
C -7.91442 -0.531998 -3.83646
C -8.11102 0.830531 -3.63731
C -7.83938 1.38938 -2.39159
C -7.37738 0.59067 -1.351
C 0.710286 -1.43071 -0.054089
C 0.174902 -2.75409 -0.17646
N -0.266964 -3.81797 -0.282831
C 4.26297 -2.09997 -0.840424
C 5.23529 -3.09626 -0.881076
O 6.37476 -3.02484 -1.60668
C 6.59858 -1.85195 -2.37504
C 5.06569 -4.27195 -0.137774
O 6.04297 -5.22431 -0.137907
C 5.85858 -6.23763 -1.12297
H 2.78312 -6.87286 2.4839
H 1.76537 -5.84851 1.43669
H 2.5484 -5.1532 2.88717
H 2.06442 -3.57591 1.30026
H 1.02556 3.35571 -1.32646
H 1.01616 4.90787 -2.98971
H 0.132887 5.44872 -1.53052
H 0.806646 6.64801 -2.66687
H 3.01518 7.47458 -0.116494
H 3.68896 7.01837 1.47536
H 4.66325 7.98461 0.336611
H 6.20005 5.79442 1.57958
H 4.90355 5.27848 2.69681
H 6.54531 4.61443 2.87052
H 4.08608 1.74714 1.22795
H -1.75023 -1.43 -1.84687
H -4.18798 -1.78668 -1.80274
H -1.84156 0.289346 2.09791
H -3.79612 0.803476 3.99864
H -5.9218 0.999687 5.26377
H -8.04542 0.217194 4.27224
H -8.11038 -0.77277 2.01091
H -6.28589 -2.59373 -0.828654
H -7.56446 -1.97995 0.199392
H -7.28587 -2.39129 -2.95689
H -8.11694 -0.976709 -4.80637
H -8.47059 1.45534 -4.44939
H -7.98808 2.45275 -2.22811
H -7.16793 1.0359 -0.382845
H 4.37919 -1.18314 -1.40174
H 5.81843 -1.71291 -3.13163
H 6.65247 -0.961164 -1.73967
H 7.55864 -1.99858 -2.87139
H 4.92128 -6.78042 -0.960118
H 5.86379 -5.81152 -2.1323
H 6.69721 -6.92942 -1.02053
