151

C -9.24811 -2.96222 -5.31146
C -9.74677 -3.04329 -3.86458
C -11.0529 -2.23705 -3.76207
C -10.0393 -4.51843 -3.5408
C -8.72451 -2.49013 -2.86128
C -7.47821 -1.97498 -3.25863
C -6.55035 -1.46606 -2.35719
C -6.88165 -1.46683 -1.00673
C -8.11478 -1.99107 -0.572717
C -9.02496 -2.49336 -1.49864
C -8.13056 -1.87992 0.873286
C -9.07236 -2.21215 1.8431
C -8.81603 -1.96811 3.19284
C -9.86731 -2.34749 4.24574
C -10.1417 -3.85956 4.17579
C -9.41433 -2.01046 5.67047
C -11.1743 -1.58582 3.96599
C -7.58826 -1.37283 3.53191
C -6.62889 -1.03109 2.58569
C -6.9041 -1.29842 1.24919
N -6.14527 -1.04527 0.103548
C -4.856 -0.466852 0.073294
C -3.83779 -0.979271 0.879679
C -2.57495 -0.411481 0.845503
C -2.3021 0.677765 0.012424
C -0.924862 1.22736 -0.016714
N 0.053947 0.323779 -0.003712
C 1.33198 0.696623 -0.04772
C 2.32286 -0.405046 -0.047637
C 3.45192 -0.390205 -0.870437
C 4.3352 -1.45978 -0.876277
C 4.11639 -2.55379 -0.039314
N 5.02399 -3.63658 -0.033345
C 6.4104 -3.54383 0.114683
C 7.21869 -2.43155 0.321504
C 8.58665 -2.63467 0.46262
C 9.17817 -3.909 0.409486
C 10.6911 -4.12247 0.561717
C 11.4482 -2.80609 0.768119
C 10.9637 -5.02681 1.77598
C 11.2439 -4.79956 -0.704185
C 8.34219 -5.00908 0.214124
C 6.96839 -4.83621 0.070126
C 5.86723 -5.7607 -0.121056
C 5.79919 -7.14423 -0.259187
C 4.57166 -7.77687 -0.45992
C 4.52018 -9.30452 -0.606262
C 5.07109 -9.96104 0.671277
C 3.09538 -9.8219 -0.832003
C 5.38124 -9.73613 -1.80577
C 3.41997 -6.97294 -0.522835
C 3.45721 -5.58989 -0.387388
C 4.69195 -4.98647 -0.175972
C 2.99153 -2.57527 0.78762
C 2.09621 -1.51882 0.766635
C 1.69071 2.05943 -0.073421
C 3.06369 2.46116 0.008566
N 4.16813 2.7927 0.097715
C 0.692299 3.04264 -0.07573
C 1.03792 4.48683 -0.089673
C 1.75685 5.02377 -1.15982
C 2.08763 6.37052 -1.17931
C 1.69561 7.19987 -0.129194
N 2.02846 8.57604 -0.150047
C 1.753 9.46719 -1.18758
C 1.07918 9.24939 -2.38918
C 0.923702 10.3295 -3.24613
C 1.4183 11.6005 -2.92116
C 2.07639 11.8136 -1.71963
C 2.24471 10.7423 -0.84104
C 2.85159 10.6152 0.467321
C 3.50836 11.5127 1.31052
C 4.004 11.0565 2.52231
C 3.85344 9.71262 2.8924
C 3.20331 8.80222 2.07158
C 2.69655 9.26978 0.85928
C 0.975897 6.67053 0.941261
C 0.653527 5.32141 0.961583
C -0.639645 2.60745 -0.047941
C -1.69151 3.57975 -0.015127
N -2.53476 4.37052 0.018704
C -3.32205 1.1748 -0.802021
C -4.59026 0.612645 -0.768278
H -10.0121 -3.36549 -5.98426
H -8.33382 -3.54564 -5.4626
H -9.04903 -1.93009 -5.6184
H -11.796 -2.62419 -4.46855
H -11.4863 -2.29314 -2.75873
H -10.8822 -1.18051 -3.99641
H -9.12927 -5.12435 -3.6113
H -10.447 -4.64001 -2.53251
H -10.7717 -4.92521 -4.24747
H -7.2111 -1.96689 -4.30855
H -5.59836 -1.08528 -2.70943
H -9.97186 -2.89202 -1.14649
H -10.0118 -2.66153 1.53485
H -9.23145 -4.4342 4.37983
H -10.8949 -4.14449 4.91916
H -10.5153 -4.15953 3.19184
H -9.23447 -0.938083 5.8
H -10.1952 -2.30235 6.38044
H -8.49978 -2.54579 5.9465
H -11.0161 -0.502753 4.01367
H -11.5796 -1.82331 2.97754
H -11.935 -1.84938 4.70969
H -7.36297 -1.16266 4.57062
H -5.6982 -0.56758 2.89314
H -4.03358 -1.83196 1.52023
H -1.78557 -0.819281 1.46712
H 3.62841 0.436323 -1.54949
H 5.1871 -1.45508 -1.54698
H 6.80598 -1.43048 0.376227
H 9.20794 -1.76135 0.621048
H 11.1258 -2.28653 1.67654
H 12.5189 -3.01242 0.868178
H 11.3211 -2.12359 -0.07872
H 10.4899 -6.00729 1.66729
H 12.041 -5.1893 1.89513
H 10.5869 -4.57101 2.69824
H 10.7745 -5.77198 -0.882706
H 11.0743 -4.17641 -1.58922
H 12.3233 -4.96334 -0.608016
H 8.75499 -6.01288 0.176233
H 6.71555 -7.7255 -0.213968
H 4.47364 -9.68136 1.54603
H 5.04559 -11.0529 0.579847
H 6.10755 -9.66742 0.86425
H 2.65223 -9.41484 -1.74693
H 3.11421 -10.9123 -0.9309
H 2.43376 -9.57778 0.005731
H 5.01012 -9.29196 -2.736
H 6.42703 -9.43754 -1.68448
H 5.35726 -10.826 -1.91878
H 2.45258 -7.43306 -0.685001
H 2.54341 -5.00977 -0.44981
H 2.82632 -3.41448 1.45409
H 1.2213 -1.54299 1.40666
H 2.05992 4.38714 -1.98486
H 2.65938 6.7777 -2.0058
H 0.68675 8.27279 -2.64924
H 0.404449 10.1837 -4.18858
H 1.28066 12.423 -3.61597
H 2.45302 12.799 -1.46113
H 3.63135 12.5511 1.01697
H 4.51629 11.7423 3.18982
H 4.25506 9.37234 3.84212
H 3.09873 7.76419 2.36623
H 0.660969 7.31645 1.75332
H 0.100389 4.91781 1.80327
H -3.13302 1.99512 -1.48493
H -5.37717 1.0163 -1.39538
